<?xml version="1.0" ?>
<routes xmlns:xsi="http://www.w3.org/2001/XMLSchema-instance" xsi:noNamespaceSchemaLocation="http://sumo.dlr.de/xsd/routes_file.xsd">
  <vType id="car" accel="2.6" decel="4.5" sigma="0.5" length="5" minGap="2.5" maxSpeed="11.11" guiShape="passenger"/>
  <vType id="bus" accel="1.2" decel="4.0" sigma="0.5" length="12" minGap="3.0" maxSpeed="11.11" guiShape="bus"/>
  <vType id="jeepney" accel="1.8" decel="4.2" sigma="0.5" length="8" minGap="2.8" maxSpeed="11.11" guiShape="bus"/>
  <vType id="motor" accel="3.0" decel="5.0" sigma="0.3" length="2" minGap="1.5" maxSpeed="11.11" guiShape="motorcycle"/>
  <vType id="truck" accel="1.5" decel="3.5" sigma="0.4" length="10" minGap="3.5" maxSpeed="11.11" guiShape="truck"/>
  <route id="route_0" edges="1069919425#1 1046997833#0"/>
  <flow id="flow_0" route="route_0" type="car" begin="0" end="300" vehsPerHour="53"/>
  <route id="route_1" edges="1069919425#1 106768827#0"/>
  <flow id="flow_1" route="route_1" type="car" begin="0" end="300" vehsPerHour="53"/>
  <route id="route_2" edges="869986417#1 1046997833#0"/>
  <flow id="flow_2" route="route_2" type="car" begin="0" end="300" vehsPerHour="53"/>
  <route id="route_3" edges="869986417#1 106768827#0"/>
  <flow id="flow_3" route="route_3" type="car" begin="0" end="300" vehsPerHour="53"/>
  <route id="route_4" edges="-106768827#1 106609720#0"/>
  <flow id="flow_4" route="route_4" type="car" begin="0" end="300" vehsPerHour="53"/>
  <route id="route_5" edges="1069919425#1 1046997833#0 1046997837#0 1046997837#1 1046997837#3 1046997837#4 1069919423#0 1069919423#1 770761758#0 770761758#1 770761758#2 1069919422#0 455558436#0 1069919420 794461796#0 794461796#1 794461797#0 794461797#1 794461797#2 -266255177#1 -266255177#0 -106768827#1 -1069919425#1"/>
  <flow id="flow_5" route="route_5" type="car" begin="0" end="300" vehsPerHour="53"/>
  <route id="route_6" edges="869986417#1 1046997833#0 1046997837#0 1046997837#1 1046997837#3 1046997837#4 1069919423#0 1069919423#1 770761758#0 770761758#1 770761758#2 1069919422#0 455558436#0 1069919420 794461796#0 794461796#1 794461797#0 794461797#1 794461797#2 -266255177#1 -266255177#0 -106768827#1 -1069919425#1"/>
  <flow id="flow_6" route="route_6" type="car" begin="0" end="300" vehsPerHour="53"/>
  <route id="route_7" edges="-106768827#1 -1069919425#1"/>
  <flow id="flow_7" route="route_7" type="car" begin="0" end="300" vehsPerHour="53"/>
  <route id="route_8" edges="935563495#2 935563495#3 935563495#4 935563495#6 -1069919425#1"/>
  <flow id="flow_8" route="route_8" type="car" begin="0" end="300" vehsPerHour="53"/>
  <route id="route_9" edges="-934134356#1 455558436#0"/>
  <flow id="flow_9" route="route_9" type="car" begin="0" end="300" vehsPerHour="53"/>
  <route id="route_10" edges="-934134356#1 -1069919422#1"/>
  <flow id="flow_10" route="route_10" type="car" begin="0" end="300" vehsPerHour="53"/>
  <route id="route_11" edges="-794461797#2 -794461797#1 -794461797#0 -794461796#1 -794461796#0 -1069919420 -455558436#1"/>
  <flow id="flow_11" route="route_11" type="car" begin="0" end="300" vehsPerHour="53"/>
  <route id="route_12" edges="1069919422#0 934134356#0"/>
  <flow id="flow_12" route="route_12" type="car" begin="0" end="300" vehsPerHour="53"/>
  <route id="route_13" edges="770761758#2 1069919422#0 934134356#0"/>
  <flow id="flow_13" route="route_13" type="car" begin="0" end="300" vehsPerHour="53"/>
  <route id="route_14" edges="-934134356#1 1102489115#0"/>
  <flow id="flow_14" route="route_14" type="car" begin="0" end="300" vehsPerHour="53"/>
  <route id="route_15" edges="-794461797#2 -794461797#1 -794461797#0 -794461796#1 -794461796#0 -1069919420 -455558436#1 1102489115#0"/>
  <flow id="flow_15" route="route_15" type="car" begin="0" end="300" vehsPerHour="53"/>
  <route id="route_16" edges="1069919422#0 1102489115#0"/>
  <flow id="flow_16" route="route_16" type="car" begin="0" end="300" vehsPerHour="53"/>
  <route id="route_17" edges="770761758#2 1069919422#0 1102489115#0"/>
  <flow id="flow_17" route="route_17" type="car" begin="0" end="300" vehsPerHour="53"/>
  <route id="route_18" edges="1042538762#0 1042538762#1 1042538762#2 1042538762#3 1102489118 1042538759#1 1042538759#2 934492019#0 934492019#1 934492019#2 934492019#3 934492019#4 934492019#5 934492019#6 934492019#7 934492019#8"/>
  <flow id="flow_18" route="route_18" type="car" begin="0" end="300" vehsPerHour="53"/>
  <route id="route_19" edges="934492020#7 934492020#9 1042538760#0 1042538760#1 1042538760#2 1102489120"/>
  <flow id="flow_19" route="route_19" type="car" begin="0" end="300" vehsPerHour="53"/>
</routes>
