<?xml version='1.0' encoding='utf-8'?>
<routes xmlns:xsi="http://www.w3.org/2001/XMLSchema-instance" xsi:noNamespaceSchemaLocation="http://sumo.dlr.de/xsd/routes_file.xsd">
  <vType id="car" accel="2.6" decel="4.5" sigma="0.5" length="5" minGap="2.5" maxSpeed="11.11" guiShape="passenger" />
  <vType id="bus" accel="1.2" decel="4.0" sigma="0.5" length="12" minGap="3.0" maxSpeed="11.11" guiShape="bus" />
  <vType id="jeepney" accel="1.8" decel="4.2" sigma="0.5" length="8" minGap="2.8" maxSpeed="11.11" guiShape="bus" />
  <vType id="motor" accel="3.0" decel="5.0" sigma="0.3" length="2" minGap="1.5" maxSpeed="11.11" guiShape="motorcycle" />
  <vType id="truck" accel="1.5" decel="3.5" sigma="0.4" length="10" minGap="3.5" maxSpeed="11.11" guiShape="truck" />
  <route id="route_0" edges="770761758#0 770761758#1 770761758#2 1069919422#0 1102489115#0" />
  <route id="route_1" edges="-794461796#1 -794461796#0 -1069919420 -455558436#1 1102489115#0" />
  <route id="route_2" edges="-794461795 -1069919421 -934134356#1 -1069919422#1 -770761758#2" />
  <route id="route_3" edges="1042538762#3 -1102489116" />
  <route id="route_4" edges="1042538760#2 -1102489116" />
  <flow id="flow_0" route="route_3" begin="0" end="3600" period="66.66666666666667" type="car" departLane="random" departSpeed="max" departPos="random" />
  <flow id="flow_1" route="route_3" begin="0" end="3600" period="53.33333333333334" type="motor" departLane="random" departSpeed="max" departPos="random" />
  <flow id="flow_2" route="route_3" begin="0" end="3600" period="100.0" type="jeepney" departLane="random" departSpeed="max" departPos="random" />
  <flow id="flow_3" route="route_3" begin="0" end="3600" period="100.0" type="bus" departLane="random" departSpeed="max" departPos="random" />
  <flow id="flow_4" route="route_3" begin="0" end="3600" period="133.33333333333334" type="truck" departLane="random" departSpeed="max" departPos="random" />
  <flow id="flow_5" route="route_4" begin="0" end="3600" period="20.0" type="car" departLane="random" departSpeed="max" departPos="random" />
  <flow id="flow_6" route="route_4" begin="0" end="3600" period="16.0" type="motor" departLane="random" departSpeed="max" departPos="random" />
  <flow id="flow_7" route="route_4" begin="0" end="3600" period="30.0" type="jeepney" departLane="random" departSpeed="max" departPos="random" />
  <flow id="flow_8" route="route_4" begin="0" end="3600" period="30.0" type="bus" departLane="random" departSpeed="max" departPos="random" />
  <flow id="flow_9" route="route_4" begin="0" end="3600" period="40.0" type="truck" departLane="random" departSpeed="max" departPos="random" />
  <flow id="flow_10" route="route_2" begin="0" end="3600" period="100.0" type="car" departLane="random" departSpeed="max" departPos="random" />
  <flow id="flow_11" route="route_2" begin="0" end="3600" period="80.0" type="motor" departLane="random" departSpeed="max" departPos="random" />
  <flow id="flow_12" route="route_2" begin="0" end="3600" period="150.0" type="jeepney" departLane="random" departSpeed="max" departPos="random" />
  <flow id="flow_13" route="route_2" begin="0" end="3600" period="150.0" type="bus" departLane="random" departSpeed="max" departPos="random" />
  <flow id="flow_14" route="route_2" begin="0" end="3600" period="200.0" type="truck" departLane="random" departSpeed="max" departPos="random" />
  <flow id="flow_15" route="route_3" begin="0" end="3600" period="40.0" type="car" departLane="random" departSpeed="max" departPos="random" />
  <flow id="flow_16" route="route_3" begin="0" end="3600" period="32.0" type="motor" departLane="random" departSpeed="max" departPos="random" />
  <flow id="flow_17" route="route_3" begin="0" end="3600" period="60.0" type="jeepney" departLane="random" departSpeed="max" departPos="random" />
  <flow id="flow_18" route="route_3" begin="0" end="3600" period="60.0" type="bus" departLane="random" departSpeed="max" departPos="random" />
  <flow id="flow_19" route="route_3" begin="0" end="3600" period="80.0" type="truck" departLane="random" departSpeed="max" departPos="random" />
  <flow id="flow_20" route="route_4" begin="0" end="3600" period="40.0" type="car" departLane="random" departSpeed="max" departPos="random" />
  <flow id="flow_21" route="route_4" begin="0" end="3600" period="32.0" type="motor" departLane="random" departSpeed="max" departPos="random" />
  <flow id="flow_22" route="route_4" begin="0" end="3600" period="60.0" type="jeepney" departLane="random" departSpeed="max" departPos="random" />
  <flow id="flow_23" route="route_4" begin="0" end="3600" period="60.0" type="bus" departLane="random" departSpeed="max" departPos="random" />
  <flow id="flow_24" route="route_4" begin="0" end="3600" period="80.0" type="truck" departLane="random" departSpeed="max" departPos="random" />
</routes>