<?xml version='1.0' encoding='utf-8'?>
<routes xmlns:xsi="http://www.w3.org/2001/XMLSchema-instance" xsi:noNamespaceSchemaLocation="http://sumo.dlr.de/xsd/routes_file.xsd">
  <vType id="car" accel="2.6" decel="4.5" sigma="0.5" length="5" minGap="2.5" maxSpeed="11.11" guiShape="passenger" />
  <vType id="bus" accel="1.2" decel="4.0" sigma="0.5" length="12" minGap="3.0" maxSpeed="11.11" guiShape="bus" />
  <vType id="jeepney" accel="1.8" decel="4.2" sigma="0.5" length="8" minGap="2.8" maxSpeed="11.11" guiShape="bus" />
  <vType id="motor" accel="3.0" decel="5.0" sigma="0.3" length="2" minGap="1.5" maxSpeed="11.11" guiShape="motorcycle" />
  <vType id="truck" accel="1.5" decel="3.5" sigma="0.4" length="10" minGap="3.5" maxSpeed="11.11" guiShape="truck" />
  <route id="route_0" edges="106768821 -1069919419 -794461795 -1069919421 -934134356#1 455558436#0" />
  <route id="route_1" edges="-794461797#2 -794461797#1 -794461797#0 -794461796#1 -794461796#0 24224171#0 24224171#2 794461795 1069919419 106768822" />
  <route id="route_2" edges="770761758#0 770761758#1 770761758#2 1069919422#0 455558436#0" />
  <route id="route_3" edges="770761758#0 770761758#1 770761758#2 1069919422#0 934134356#0 1069919421 794461795 1069919419 106768822" />
  <route id="route_4" edges="-24224169#2 -24224169#1 -24224169#0 455558436#0" />
  <route id="route_5" edges="-24224169#2 -24224169#1 -24224169#0 934134356#0 1069919421 794461795 1069919419 106768822" />
  <route id="route_6" edges="-24224169#2" />
  <route id="route_7" edges="106768821 -1069919419 -794461795 -1069919421 -934134356#1 455558436#0" />
  <route id="route_8" edges="-794461797#2 -794461797#1 -794461797#0 -794461796#1 -794461796#0 24224171#0 24224171#2 794461795 1069919419 106768822" />
  <route id="route_9" edges="770761758#0 770761758#1 770761758#2 1069919422#0 455558436#0" />
  <route id="route_10" edges="770761758#0 770761758#1 770761758#2 1069919422#0 934134356#0 1069919421 794461795 1069919419 106768822" />
  <route id="route_11" edges="-24224169#2 -24224169#1 -24224169#0 455558436#0" />
  <route id="route_12" edges="-24224169#2 -24224169#1 -24224169#0 934134356#0 1069919421 794461795 1069919419 106768822" />
  <route id="route_13" edges="-24224169#2" />
  <route id="route_14" edges="106768821 -1069919419 -794461795 -1069919421 -934134356#1 455558436#0" />
  <route id="route_15" edges="-794461797#2 -794461797#1 -794461797#0 -794461796#1 -794461796#0 24224171#0 24224171#2 794461795 1069919419 106768822" />
  <route id="route_16" edges="770761758#0 770761758#1 770761758#2 1069919422#0 455558436#0" />
  <route id="route_17" edges="770761758#0 770761758#1 770761758#2 1069919422#0 934134356#0 1069919421 794461795 1069919419 106768822" />
  <route id="route_18" edges="-24224169#2 -24224169#1 -24224169#0 455558436#0" />
  <route id="route_19" edges="-24224169#2 -24224169#1 -24224169#0 934134356#0 1069919421 794461795 1069919419 106768822" />
  <route id="route_20" edges="-24224169#2" />
  <route id="route_21" edges="106768821 -1069919419 -794461795 -1069919421 -934134356#1 455558436#0" />
  <route id="route_22" edges="-794461797#2 -794461797#1 -794461797#0 -794461796#1 -794461796#0 24224171#0 24224171#2 794461795 1069919419 106768822" />
  <route id="route_23" edges="770761758#0 770761758#1 770761758#2 1069919422#0 455558436#0" />
  <route id="route_24" edges="770761758#0 770761758#1 770761758#2 1069919422#0 934134356#0 1069919421 794461795 1069919419 106768822" />
  <route id="route_25" edges="-24224169#2 -24224169#1 -24224169#0 455558436#0" />
  <route id="route_26" edges="-24224169#2 -24224169#1 -24224169#0 934134356#0 1069919421 794461795 1069919419 106768822" />
  <route id="route_27" edges="-24224169#2" />
  <route id="route_28" edges="106768821 -1069919419 -794461795 -1069919421 -934134356#1 455558436#0" />
  <route id="route_29" edges="-794461797#2 -794461797#1 -794461797#0 -794461796#1 -794461796#0 24224171#0 24224171#2 794461795 1069919419 106768822" />
  <route id="route_30" edges="770761758#0 770761758#1 770761758#2 1069919422#0 455558436#0" />
  <route id="route_31" edges="770761758#0 770761758#1 770761758#2 1069919422#0 934134356#0 1069919421 794461795 1069919419 106768822" />
  <route id="route_32" edges="-24224169#2 -24224169#1 -24224169#0 455558436#0" />
  <route id="route_33" edges="-24224169#2 -24224169#1 -24224169#0 934134356#0 1069919421 794461795 1069919419 106768822" />
  <route id="route_34" edges="-24224169#2" />
  <flow id="flow_0" route="route_0" begin="0" end="3600" period="12.86" type="car" departLane="random" departSpeed="random" departPos="random" arrivalLane="current" departPosLat="random" />
  <flow id="flow_1" route="route_1" begin="0" end="3600" period="15.00" type="car" departLane="random" departSpeed="random" departPos="random" arrivalLane="current" departPosLat="random" />
  <flow id="flow_2" route="route_2" begin="0" end="3600" period="22.50" type="car" departLane="random" departSpeed="random" departPos="random" arrivalLane="current" departPosLat="random" />
  <flow id="flow_3" route="route_3" begin="0" end="3600" period="22.50" type="car" departLane="random" departSpeed="random" departPos="random" arrivalLane="current" departPosLat="random" />
  <flow id="flow_4" route="route_4" begin="0" end="3600" period="30.00" type="car" departLane="random" departSpeed="random" departPos="random" arrivalLane="current" departPosLat="random" />
  <flow id="flow_5" route="route_5" begin="0" end="3600" period="30.00" type="car" departLane="random" departSpeed="random" departPos="random" arrivalLane="current" departPosLat="random" />
  <flow id="flow_6" route="route_6" begin="0" end="3600" period="90.00" type="car" departLane="random" departSpeed="random" departPos="random" arrivalLane="current" departPosLat="random" />
  <flow id="flow_7" route="route_7" begin="0" end="3600" period="25.21" type="motor" departLane="random" departSpeed="random" departPos="random" arrivalLane="current" departPosLat="random" />
  <flow id="flow_8" route="route_8" begin="0" end="3600" period="29.41" type="motor" departLane="random" departSpeed="random" departPos="random" arrivalLane="current" departPosLat="random" />
  <flow id="flow_9" route="route_9" begin="0" end="3600" period="44.12" type="motor" departLane="random" departSpeed="random" departPos="random" arrivalLane="current" departPosLat="random" />
  <flow id="flow_10" route="route_10" begin="0" end="3600" period="44.12" type="motor" departLane="random" departSpeed="random" departPos="random" arrivalLane="current" departPosLat="random" />
  <flow id="flow_11" route="route_11" begin="0" end="3600" period="58.82" type="motor" departLane="random" departSpeed="random" departPos="random" arrivalLane="current" departPosLat="random" />
  <flow id="flow_12" route="route_12" begin="0" end="3600" period="58.82" type="motor" departLane="random" departSpeed="random" departPos="random" arrivalLane="current" departPosLat="random" />
  <flow id="flow_13" route="route_13" begin="0" end="3600" period="176.47" type="motor" departLane="random" departSpeed="random" departPos="random" arrivalLane="current" departPosLat="random" />
  <flow id="flow_14" route="route_14" begin="0" end="3600" period="50.42" type="jeepney" departLane="random" departSpeed="random" departPos="random" arrivalLane="current" departPosLat="random" />
  <flow id="flow_15" route="route_15" begin="0" end="3600" period="58.82" type="jeepney" departLane="random" departSpeed="random" departPos="random" arrivalLane="current" departPosLat="random" />
  <flow id="flow_16" route="route_16" begin="0" end="3600" period="88.24" type="jeepney" departLane="random" departSpeed="random" departPos="random" arrivalLane="current" departPosLat="random" />
  <flow id="flow_17" route="route_17" begin="0" end="3600" period="88.24" type="jeepney" departLane="random" departSpeed="random" departPos="random" arrivalLane="current" departPosLat="random" />
  <flow id="flow_18" route="route_18" begin="0" end="3600" period="117.65" type="jeepney" departLane="random" departSpeed="random" departPos="random" arrivalLane="current" departPosLat="random" />
  <flow id="flow_19" route="route_19" begin="0" end="3600" period="117.65" type="jeepney" departLane="random" departSpeed="random" departPos="random" arrivalLane="current" departPosLat="random" />
  <flow id="flow_20" route="route_20" begin="0" end="3600" period="352.94" type="jeepney" departLane="random" departSpeed="random" departPos="random" arrivalLane="current" departPosLat="random" />
  <flow id="flow_21" route="route_21" begin="0" end="3600" period="514.29" type="bus" departLane="random" departSpeed="random" departPos="random" arrivalLane="current" departPosLat="random" />
  <flow id="flow_22" route="route_22" begin="0" end="3600" period="600.00" type="bus" departLane="random" departSpeed="random" departPos="random" arrivalLane="current" departPosLat="random" />
  <flow id="flow_23" route="route_23" begin="0" end="3600" period="900.00" type="bus" departLane="random" departSpeed="random" departPos="random" arrivalLane="current" departPosLat="random" />
  <flow id="flow_24" route="route_24" begin="0" end="3600" period="900.00" type="bus" departLane="random" departSpeed="random" departPos="random" arrivalLane="current" departPosLat="random" />
  <flow id="flow_25" route="route_25" begin="0" end="3600" period="1200.00" type="bus" departLane="random" departSpeed="random" departPos="random" arrivalLane="current" departPosLat="random" />
  <flow id="flow_26" route="route_26" begin="0" end="3600" period="1200.00" type="bus" departLane="random" departSpeed="random" departPos="random" arrivalLane="current" departPosLat="random" />
  <flow id="flow_27" route="route_27" begin="0" end="3600" period="3600.00" type="bus" departLane="random" departSpeed="random" departPos="random" arrivalLane="current" departPosLat="random" />
  <flow id="flow_28" route="route_28" begin="0" end="3600" period="257.14" type="truck" departLane="random" departSpeed="random" departPos="random" arrivalLane="current" departPosLat="random" />
  <flow id="flow_29" route="route_29" begin="0" end="3600" period="300.00" type="truck" departLane="random" departSpeed="random" departPos="random" arrivalLane="current" departPosLat="random" />
  <flow id="flow_30" route="route_30" begin="0" end="3600" period="450.00" type="truck" departLane="random" departSpeed="random" departPos="random" arrivalLane="current" departPosLat="random" />
  <flow id="flow_31" route="route_31" begin="0" end="3600" period="450.00" type="truck" departLane="random" departSpeed="random" departPos="random" arrivalLane="current" departPosLat="random" />
  <flow id="flow_32" route="route_32" begin="0" end="3600" period="600.00" type="truck" departLane="random" departSpeed="random" departPos="random" arrivalLane="current" departPosLat="random" />
  <flow id="flow_33" route="route_33" begin="0" end="3600" period="600.00" type="truck" departLane="random" departSpeed="random" departPos="random" arrivalLane="current" departPosLat="random" />
  <flow id="flow_34" route="route_34" begin="0" end="3600" period="1800.00" type="truck" departLane="random" departSpeed="random" departPos="random" arrivalLane="current" departPosLat="random" />
  <route id="route_35" edges="1046997839#6 1046997839#7 1046997838#0 1046997838#1 1046997838#2 1046997838#3 1069919425#0 1069919425#1 106609720#0 106609720#1 106609720#2 106609720#3 106609720#4" />
  <route id="route_36" edges="1046997839#6 1046997839#7 1046997838#0 1046997838#1 1046997838#2 1046997838#3 1069919425#0 1069919425#1 -935563495#7 -935563495#4 -935563495#3 -935563495#2" />
  <route id="route_37" edges="1046997839#6 1046997839#7 1046997838#0 1046997838#1 1046997838#2 1046997838#3 1069919425#0 1069919425#1 106768827#0 266255177#0 266255177#1" />
  <route id="route_38" edges="1046997839#6 1046997839#7 1046997838#0 1046997838#1 1046997838#2 1046997838#3 1069919425#0 1069919425#1 1046997833#0 1046997837#0 1046997837#1 1046997837#3 1046997837#4 1069919423#0 1069919423#1 770761758#0 770761758#1 770761758#2 1069919422#0 455558436#0 1069919420 794461796#0 794461796#1 794461797#0 794461797#1 794461797#2 -266255177#1 -266255177#0 -106768827#1 -1069919425#1 -1069919425#0 -1046997838#3 -1046997838#2 -1046997838#1 -1046997838#0 -1046997839#7 -1046997839#6" />
  <route id="route_39" edges="869986417#1 1046997833#0 1046997837#0 1046997837#1 1046997837#3 1046997837#4 1069919423#0 1069919423#1 770761758#0 770761758#1 770761758#2 1069919422#0 455558436#0 1069919420 794461796#0 794461796#1 794461797#0 794461797#1 794461797#2 -266255177#1 -266255177#0 -106768827#1 -1069919425#1 -1069919425#0 -1046997838#3 -1046997838#2 -1046997838#1 -1046997838#0 -1046997839#7 -1046997839#6" />
  <route id="route_40" edges="869986417#1 1046997833#0 1046997837#0 1046997837#1 1046997837#3 1046997837#4 1069919423#0 1069919423#1 770761758#0 770761758#1 770761758#2 1069919422#0 455558436#0 1069919420 794461796#0 794461796#1 794461797#0 794461797#1 794461797#2 -266255177#1 -266255177#0 -106768827#1 106609720#0 106609720#1 106609720#2 106609720#3 106609720#4" />
  <route id="route_41" edges="869986417#1 -935563495#7 -935563495#4 -935563495#3 -935563495#2" />
  <route id="route_42" edges="869986417#1 106768827#0 266255177#0 266255177#1" />
  <route id="route_43" edges="935563495#2 935563495#3 935563495#4 935563495#6 -1069919425#1 -1069919425#0 -1046997838#3 -1046997838#2 -1046997838#1 -1046997838#0 -1046997839#7 -1046997839#6" />
  <route id="route_44" edges="-1046997837#4 -1046997837#3 -1046997837#1 -1046997837#0 -1069919424 -935563495#7 -935563495#4 -935563495#3 -935563495#2" />
  <route id="route_45" edges="-1046997837#4 -1046997837#3 -1046997837#1 -1046997837#0 -1069919424 -1069919425#1 -1069919425#0 -1046997838#3 -1046997838#2 -1046997838#1 -1046997838#0 -1046997839#7 -1046997839#6" />
  <route id="route_46" edges="-1046997837#4 -1046997837#3 -1046997837#1 -1046997837#0 -1069919424 106609720#0 106609720#1 106609720#2 106609720#3 106609720#4" />
  <route id="route_47" edges="-266255177#0 -106768827#1 -1069919425#1 -1069919425#0 -1046997838#3 -1046997838#2 -1046997838#1 -1046997838#0 -1046997839#7 -1046997839#6" />
  <route id="route_48" edges="-266255177#0 -106768827#1 106609720#0 106609720#1 106609720#2 106609720#3 106609720#4" />
  <route id="route_49" edges="1046997839#6 1046997839#7 1046997838#0 1046997838#1 1046997838#2 1046997838#3 1069919425#0 1069919425#1 106609720#0 106609720#1 106609720#2 106609720#3 106609720#4" />
  <route id="route_50" edges="1046997839#6 1046997839#7 1046997838#0 1046997838#1 1046997838#2 1046997838#3 1069919425#0 1069919425#1 -935563495#7 -935563495#4 -935563495#3 -935563495#2" />
  <route id="route_51" edges="1046997839#6 1046997839#7 1046997838#0 1046997838#1 1046997838#2 1046997838#3 1069919425#0 1069919425#1 106768827#0 266255177#0 266255177#1" />
  <route id="route_52" edges="1046997839#6 1046997839#7 1046997838#0 1046997838#1 1046997838#2 1046997838#3 1069919425#0 1069919425#1 1046997833#0 1046997837#0 1046997837#1 1046997837#3 1046997837#4 1069919423#0 1069919423#1 770761758#0 770761758#1 770761758#2 1069919422#0 455558436#0 1069919420 794461796#0 794461796#1 794461797#0 794461797#1 794461797#2 -266255177#1 -266255177#0 -106768827#1 -1069919425#1 -1069919425#0 -1046997838#3 -1046997838#2 -1046997838#1 -1046997838#0 -1046997839#7 -1046997839#6" />
  <route id="route_53" edges="869986417#1 1046997833#0 1046997837#0 1046997837#1 1046997837#3 1046997837#4 1069919423#0 1069919423#1 770761758#0 770761758#1 770761758#2 1069919422#0 455558436#0 1069919420 794461796#0 794461796#1 794461797#0 794461797#1 794461797#2 -266255177#1 -266255177#0 -106768827#1 -1069919425#1 -1069919425#0 -1046997838#3 -1046997838#2 -1046997838#1 -1046997838#0 -1046997839#7 -1046997839#6" />
  <route id="route_54" edges="869986417#1 1046997833#0 1046997837#0 1046997837#1 1046997837#3 1046997837#4 1069919423#0 1069919423#1 770761758#0 770761758#1 770761758#2 1069919422#0 455558436#0 1069919420 794461796#0 794461796#1 794461797#0 794461797#1 794461797#2 -266255177#1 -266255177#0 -106768827#1 106609720#0 106609720#1 106609720#2 106609720#3 106609720#4" />
  <route id="route_55" edges="869986417#1 -935563495#7 -935563495#4 -935563495#3 -935563495#2" />
  <route id="route_56" edges="869986417#1 106768827#0 266255177#0 266255177#1" />
  <route id="route_57" edges="935563495#2 935563495#3 935563495#4 935563495#6 -1069919425#1 -1069919425#0 -1046997838#3 -1046997838#2 -1046997838#1 -1046997838#0 -1046997839#7 -1046997839#6" />
  <route id="route_58" edges="-1046997837#4 -1046997837#3 -1046997837#1 -1046997837#0 -1069919424 -935563495#7 -935563495#4 -935563495#3 -935563495#2" />
  <route id="route_59" edges="-1046997837#4 -1046997837#3 -1046997837#1 -1046997837#0 -1069919424 -1069919425#1 -1069919425#0 -1046997838#3 -1046997838#2 -1046997838#1 -1046997838#0 -1046997839#7 -1046997839#6" />
  <route id="route_60" edges="-1046997837#4 -1046997837#3 -1046997837#1 -1046997837#0 -1069919424 106609720#0 106609720#1 106609720#2 106609720#3 106609720#4" />
  <route id="route_61" edges="-266255177#0 -106768827#1 -1069919425#1 -1069919425#0 -1046997838#3 -1046997838#2 -1046997838#1 -1046997838#0 -1046997839#7 -1046997839#6" />
  <route id="route_62" edges="-266255177#0 -106768827#1 106609720#0 106609720#1 106609720#2 106609720#3 106609720#4" />
  <route id="route_63" edges="1046997839#6 1046997839#7 1046997838#0 1046997838#1 1046997838#2 1046997838#3 1069919425#0 1069919425#1 106609720#0 106609720#1 106609720#2 106609720#3 106609720#4" />
  <route id="route_64" edges="1046997839#6 1046997839#7 1046997838#0 1046997838#1 1046997838#2 1046997838#3 1069919425#0 1069919425#1 -935563495#7 -935563495#4 -935563495#3 -935563495#2" />
  <route id="route_65" edges="1046997839#6 1046997839#7 1046997838#0 1046997838#1 1046997838#2 1046997838#3 1069919425#0 1069919425#1 106768827#0 266255177#0 266255177#1" />
  <route id="route_66" edges="1046997839#6 1046997839#7 1046997838#0 1046997838#1 1046997838#2 1046997838#3 1069919425#0 1069919425#1 1046997833#0 1046997837#0 1046997837#1 1046997837#3 1046997837#4 1069919423#0 1069919423#1 770761758#0 770761758#1 770761758#2 1069919422#0 455558436#0 1069919420 794461796#0 794461796#1 794461797#0 794461797#1 794461797#2 -266255177#1 -266255177#0 -106768827#1 -1069919425#1 -1069919425#0 -1046997838#3 -1046997838#2 -1046997838#1 -1046997838#0 -1046997839#7 -1046997839#6" />
  <route id="route_67" edges="869986417#1 1046997833#0 1046997837#0 1046997837#1 1046997837#3 1046997837#4 1069919423#0 1069919423#1 770761758#0 770761758#1 770761758#2 1069919422#0 455558436#0 1069919420 794461796#0 794461796#1 794461797#0 794461797#1 794461797#2 -266255177#1 -266255177#0 -106768827#1 -1069919425#1 -1069919425#0 -1046997838#3 -1046997838#2 -1046997838#1 -1046997838#0 -1046997839#7 -1046997839#6" />
  <route id="route_68" edges="869986417#1 1046997833#0 1046997837#0 1046997837#1 1046997837#3 1046997837#4 1069919423#0 1069919423#1 770761758#0 770761758#1 770761758#2 1069919422#0 455558436#0 1069919420 794461796#0 794461796#1 794461797#0 794461797#1 794461797#2 -266255177#1 -266255177#0 -106768827#1 106609720#0 106609720#1 106609720#2 106609720#3 106609720#4" />
  <route id="route_69" edges="869986417#1 -935563495#7 -935563495#4 -935563495#3 -935563495#2" />
  <route id="route_70" edges="869986417#1 106768827#0 266255177#0 266255177#1" />
  <route id="route_71" edges="935563495#2 935563495#3 935563495#4 935563495#6 -1069919425#1 -1069919425#0 -1046997838#3 -1046997838#2 -1046997838#1 -1046997838#0 -1046997839#7 -1046997839#6" />
  <route id="route_72" edges="-1046997837#4 -1046997837#3 -1046997837#1 -1046997837#0 -1069919424 -935563495#7 -935563495#4 -935563495#3 -935563495#2" />
  <route id="route_73" edges="-1046997837#4 -1046997837#3 -1046997837#1 -1046997837#0 -1069919424 -1069919425#1 -1069919425#0 -1046997838#3 -1046997838#2 -1046997838#1 -1046997838#0 -1046997839#7 -1046997839#6" />
  <route id="route_74" edges="-1046997837#4 -1046997837#3 -1046997837#1 -1046997837#0 -1069919424 106609720#0 106609720#1 106609720#2 106609720#3 106609720#4" />
  <route id="route_75" edges="-266255177#0 -106768827#1 -1069919425#1 -1069919425#0 -1046997838#3 -1046997838#2 -1046997838#1 -1046997838#0 -1046997839#7 -1046997839#6" />
  <route id="route_76" edges="-266255177#0 -106768827#1 106609720#0 106609720#1 106609720#2 106609720#3 106609720#4" />
  <route id="route_77" edges="1046997839#6 1046997839#7 1046997838#0 1046997838#1 1046997838#2 1046997838#3 1069919425#0 1069919425#1 106609720#0 106609720#1 106609720#2 106609720#3 106609720#4" />
  <route id="route_78" edges="1046997839#6 1046997839#7 1046997838#0 1046997838#1 1046997838#2 1046997838#3 1069919425#0 1069919425#1 -935563495#7 -935563495#4 -935563495#3 -935563495#2" />
  <route id="route_79" edges="1046997839#6 1046997839#7 1046997838#0 1046997838#1 1046997838#2 1046997838#3 1069919425#0 1069919425#1 106768827#0 266255177#0 266255177#1" />
  <route id="route_80" edges="1046997839#6 1046997839#7 1046997838#0 1046997838#1 1046997838#2 1046997838#3 1069919425#0 1069919425#1 1046997833#0 1046997837#0 1046997837#1 1046997837#3 1046997837#4 1069919423#0 1069919423#1 770761758#0 770761758#1 770761758#2 1069919422#0 455558436#0 1069919420 794461796#0 794461796#1 794461797#0 794461797#1 794461797#2 -266255177#1 -266255177#0 -106768827#1 -1069919425#1 -1069919425#0 -1046997838#3 -1046997838#2 -1046997838#1 -1046997838#0 -1046997839#7 -1046997839#6" />
  <route id="route_81" edges="869986417#1 1046997833#0 1046997837#0 1046997837#1 1046997837#3 1046997837#4 1069919423#0 1069919423#1 770761758#0 770761758#1 770761758#2 1069919422#0 455558436#0 1069919420 794461796#0 794461796#1 794461797#0 794461797#1 794461797#2 -266255177#1 -266255177#0 -106768827#1 -1069919425#1 -1069919425#0 -1046997838#3 -1046997838#2 -1046997838#1 -1046997838#0 -1046997839#7 -1046997839#6" />
  <route id="route_82" edges="869986417#1 1046997833#0 1046997837#0 1046997837#1 1046997837#3 1046997837#4 1069919423#0 1069919423#1 770761758#0 770761758#1 770761758#2 1069919422#0 455558436#0 1069919420 794461796#0 794461796#1 794461797#0 794461797#1 794461797#2 -266255177#1 -266255177#0 -106768827#1 106609720#0 106609720#1 106609720#2 106609720#3 106609720#4" />
  <route id="route_83" edges="869986417#1 -935563495#7 -935563495#4 -935563495#3 -935563495#2" />
  <route id="route_84" edges="869986417#1 106768827#0 266255177#0 266255177#1" />
  <route id="route_85" edges="935563495#2 935563495#3 935563495#4 935563495#6 -1069919425#1 -1069919425#0 -1046997838#3 -1046997838#2 -1046997838#1 -1046997838#0 -1046997839#7 -1046997839#6" />
  <route id="route_86" edges="-1046997837#4 -1046997837#3 -1046997837#1 -1046997837#0 -1069919424 -935563495#7 -935563495#4 -935563495#3 -935563495#2" />
  <route id="route_87" edges="-1046997837#4 -1046997837#3 -1046997837#1 -1046997837#0 -1069919424 -1069919425#1 -1069919425#0 -1046997838#3 -1046997838#2 -1046997838#1 -1046997838#0 -1046997839#7 -1046997839#6" />
  <route id="route_88" edges="-1046997837#4 -1046997837#3 -1046997837#1 -1046997837#0 -1069919424 106609720#0 106609720#1 106609720#2 106609720#3 106609720#4" />
  <route id="route_89" edges="-266255177#0 -106768827#1 -1069919425#1 -1069919425#0 -1046997838#3 -1046997838#2 -1046997838#1 -1046997838#0 -1046997839#7 -1046997839#6" />
  <route id="route_90" edges="-266255177#0 -106768827#1 106609720#0 106609720#1 106609720#2 106609720#3 106609720#4" />
  <route id="route_91" edges="1046997839#6 1046997839#7 1046997838#0 1046997838#1 1046997838#2 1046997838#3 1069919425#0 1069919425#1 106609720#0 106609720#1 106609720#2 106609720#3 106609720#4" />
  <route id="route_92" edges="1046997839#6 1046997839#7 1046997838#0 1046997838#1 1046997838#2 1046997838#3 1069919425#0 1069919425#1 -935563495#7 -935563495#4 -935563495#3 -935563495#2" />
  <route id="route_93" edges="1046997839#6 1046997839#7 1046997838#0 1046997838#1 1046997838#2 1046997838#3 1069919425#0 1069919425#1 106768827#0 266255177#0 266255177#1" />
  <route id="route_94" edges="1046997839#6 1046997839#7 1046997838#0 1046997838#1 1046997838#2 1046997838#3 1069919425#0 1069919425#1 1046997833#0 1046997837#0 1046997837#1 1046997837#3 1046997837#4 1069919423#0 1069919423#1 770761758#0 770761758#1 770761758#2 1069919422#0 455558436#0 1069919420 794461796#0 794461796#1 794461797#0 794461797#1 794461797#2 -266255177#1 -266255177#0 -106768827#1 -1069919425#1 -1069919425#0 -1046997838#3 -1046997838#2 -1046997838#1 -1046997838#0 -1046997839#7 -1046997839#6" />
  <route id="route_95" edges="869986417#1 1046997833#0 1046997837#0 1046997837#1 1046997837#3 1046997837#4 1069919423#0 1069919423#1 770761758#0 770761758#1 770761758#2 1069919422#0 455558436#0 1069919420 794461796#0 794461796#1 794461797#0 794461797#1 794461797#2 -266255177#1 -266255177#0 -106768827#1 -1069919425#1 -1069919425#0 -1046997838#3 -1046997838#2 -1046997838#1 -1046997838#0 -1046997839#7 -1046997839#6" />
  <route id="route_96" edges="869986417#1 1046997833#0 1046997837#0 1046997837#1 1046997837#3 1046997837#4 1069919423#0 1069919423#1 770761758#0 770761758#1 770761758#2 1069919422#0 455558436#0 1069919420 794461796#0 794461796#1 794461797#0 794461797#1 794461797#2 -266255177#1 -266255177#0 -106768827#1 106609720#0 106609720#1 106609720#2 106609720#3 106609720#4" />
  <route id="route_97" edges="869986417#1 -935563495#7 -935563495#4 -935563495#3 -935563495#2" />
  <route id="route_98" edges="869986417#1 106768827#0 266255177#0 266255177#1" />
  <route id="route_99" edges="935563495#2 935563495#3 935563495#4 935563495#6 -1069919425#1 -1069919425#0 -1046997838#3 -1046997838#2 -1046997838#1 -1046997838#0 -1046997839#7 -1046997839#6" />
  <route id="route_100" edges="-1046997837#4 -1046997837#3 -1046997837#1 -1046997837#0 -1069919424 -935563495#7 -935563495#4 -935563495#3 -935563495#2" />
  <route id="route_101" edges="-1046997837#4 -1046997837#3 -1046997837#1 -1046997837#0 -1069919424 -1069919425#1 -1069919425#0 -1046997838#3 -1046997838#2 -1046997838#1 -1046997838#0 -1046997839#7 -1046997839#6" />
  <route id="route_102" edges="-1046997837#4 -1046997837#3 -1046997837#1 -1046997837#0 -1069919424 106609720#0 106609720#1 106609720#2 106609720#3 106609720#4" />
  <route id="route_103" edges="-266255177#0 -106768827#1 -1069919425#1 -1069919425#0 -1046997838#3 -1046997838#2 -1046997838#1 -1046997838#0 -1046997839#7 -1046997839#6" />
  <route id="route_104" edges="-266255177#0 -106768827#1 106609720#0 106609720#1 106609720#2 106609720#3 106609720#4" />
  <flow id="flow_35" route="route_70" begin="0" end="3600" period="28.57" type="car" departLane="random" departSpeed="random" departPos="random" arrivalLane="current" departPosLat="random" />
  <flow id="flow_36" route="route_71" begin="0" end="3600" period="28.57" type="car" departLane="random" departSpeed="random" departPos="random" arrivalLane="current" departPosLat="random" />
  <flow id="flow_37" route="route_72" begin="0" end="3600" period="28.57" type="car" departLane="random" departSpeed="random" departPos="random" arrivalLane="current" departPosLat="random" />
  <flow id="flow_38" route="route_73" begin="0" end="3600" period="85.71" type="car" departLane="random" departSpeed="random" departPos="random" arrivalLane="current" departPosLat="random" />
  <flow id="flow_39" route="route_74" begin="0" end="3600" period="28.57" type="car" departLane="random" departSpeed="random" departPos="random" arrivalLane="current" departPosLat="random" />
  <flow id="flow_40" route="route_75" begin="0" end="3600" period="28.57" type="car" departLane="random" departSpeed="random" departPos="random" arrivalLane="current" departPosLat="random" />
  <flow id="flow_41" route="route_76" begin="0" end="3600" period="85.71" type="car" departLane="random" departSpeed="random" departPos="random" arrivalLane="current" departPosLat="random" />
  <flow id="flow_42" route="route_77" begin="0" end="3600" period="85.71" type="car" departLane="random" departSpeed="random" departPos="random" arrivalLane="current" departPosLat="random" />
  <flow id="flow_43" route="route_78" begin="0" end="3600" period="47.62" type="car" departLane="random" departSpeed="random" departPos="random" arrivalLane="current" departPosLat="random" />
  <flow id="flow_44" route="route_79" begin="0" end="3600" period="35.71" type="car" departLane="random" departSpeed="random" departPos="random" arrivalLane="current" departPosLat="random" />
  <flow id="flow_45" route="route_80" begin="0" end="3600" period="35.71" type="car" departLane="random" departSpeed="random" departPos="random" arrivalLane="current" departPosLat="random" />
  <flow id="flow_46" route="route_81" begin="0" end="3600" period="35.71" type="car" departLane="random" departSpeed="random" departPos="random" arrivalLane="current" departPosLat="random" />
  <flow id="flow_47" route="route_82" begin="0" end="3600" period="47.62" type="car" departLane="random" departSpeed="random" departPos="random" arrivalLane="current" departPosLat="random" />
  <flow id="flow_48" route="route_83" begin="0" end="3600" period="47.62" type="car" departLane="random" departSpeed="random" departPos="random" arrivalLane="current" departPosLat="random" />
  <flow id="flow_49" route="route_84" begin="0" end="3600" period="56.25" type="motor" departLane="random" departSpeed="random" departPos="random" arrivalLane="current" departPosLat="random" />
  <flow id="flow_50" route="route_85" begin="0" end="3600" period="56.25" type="motor" departLane="random" departSpeed="random" departPos="random" arrivalLane="current" departPosLat="random" />
  <flow id="flow_51" route="route_86" begin="0" end="3600" period="56.25" type="motor" departLane="random" departSpeed="random" departPos="random" arrivalLane="current" departPosLat="random" />
  <flow id="flow_52" route="route_87" begin="0" end="3600" period="168.75" type="motor" departLane="random" departSpeed="random" departPos="random" arrivalLane="current" departPosLat="random" />