<?xml version='1.0' encoding='utf-8'?>
<routes xmlns:xsi="http://www.w3.org/2001/XMLSchema-instance" xsi:noNamespaceSchemaLocation="http://sumo.dlr.de/xsd/routes_file.xsd">
  <vType id="car" accel="2.6" decel="4.5" sigma="0.5" length="5" minGap="2.5" maxSpeed="11.11" guiShape="passenger" />
  <vType id="bus" accel="1.2" decel="4.0" sigma="0.5" length="12" minGap="3.0" maxSpeed="11.11" guiShape="bus" />
  <vType id="jeepney" accel="1.8" decel="4.2" sigma="0.5" length="8" minGap="2.8" maxSpeed="11.11" guiShape="bus" />
  <vType id="motor" accel="3.0" decel="5.0" sigma="0.3" length="2" minGap="1.5" maxSpeed="11.11" guiShape="motorcycle" />
  <vType id="truck" accel="1.5" decel="3.5" sigma="0.4" length="10" minGap="3.5" maxSpeed="11.11" guiShape="truck" />
  <route id="route_0" edges="106768821 -1069919419 -794461795 -1069919421 -934134356#1 455558436#0" />
  <route id="route_1" edges="-794461797#2 -794461797#1 -794461797#0 -794461796#1 -794461796#0 24224171#0 24224171#2 794461795 1069919419 106768822" />
  <route id="route_2" edges="106768821 -1069919419 -794461795 -1069919421 -934134356#1 455558436#0" />
  <route id="route_3" edges="-794461797#2 -794461797#1 -794461797#0 -794461796#1 -794461796#0 24224171#0 24224171#2 794461795 1069919419 106768822" />
  <route id="route_4" edges="106768821 -1069919419 -794461795 -1069919421 -934134356#1 455558436#0" />
  <route id="route_5" edges="-794461797#2 -794461797#1 -794461797#0 -794461796#1 -794461796#0 24224171#0 24224171#2 794461795 1069919419 106768822" />
  <route id="route_6" edges="106768821 -1069919419 -794461795 -1069919421 -934134356#1 455558436#0" />
  <route id="route_7" edges="-794461797#2 -794461797#1 -794461797#0 -794461796#1 -794461796#0 24224171#0 24224171#2 794461795 1069919419 106768822" />
  <route id="route_8" edges="106768821 -1069919419 -794461795 -1069919421 -934134356#1 455558436#0" />
  <route id="route_9" edges="-794461797#2 -794461797#1 -794461797#0 -794461796#1 -794461796#0 24224171#0 24224171#2 794461795 1069919419 106768822" />
  <flow id="flow_0" route="route_0" begin="0" end="3600" probability="0.078333" type="car" departLane="random" departSpeed="random" />
  <flow id="flow_1" route="route_1" begin="0" end="3600" probability="0.078333" type="car" departLane="random" departSpeed="random" />
  <flow id="flow_2" route="route_2" begin="0" end="3600" probability="0.042083" type="motor" departLane="random" departSpeed="random" />
  <flow id="flow_3" route="route_3" begin="0" end="3600" probability="0.042083" type="motor" departLane="random" departSpeed="random" />
  <flow id="flow_4" route="route_4" begin="0" end="3600" probability="0.012917" type="jeepney" departLane="random" departSpeed="random" />
  <flow id="flow_5" route="route_5" begin="0" end="3600" probability="0.012917" type="jeepney" departLane="random" departSpeed="random" />
  <flow id="flow_6" route="route_6" begin="0" end="3600" probability="0.001250" type="bus" departLane="random" departSpeed="random" />
  <flow id="flow_7" route="route_7" begin="0" end="3600" probability="0.001250" type="bus" departLane="random" departSpeed="random" />
  <flow id="flow_8" route="route_8" begin="0" end="3600" probability="0.002500" type="truck" departLane="random" departSpeed="random" />
  <flow id="flow_9" route="route_9" begin="0" end="3600" probability="0.002500" type="truck" departLane="random" departSpeed="random" />
  <route id="route_10" edges="1046997839#6 1046997839#7 1046997838#0 1046997838#1 1046997838#2 1046997838#3 1069919425#0 1069919425#1 -935563495#7 -935563495#4 -935563495#3 -935563495#2" />
  <route id="route_11" edges="1046997839#6 1046997839#7 1046997838#0 1046997838#1 1046997838#2 1046997838#3 1069919425#0 1069919425#1 1046997833#0 1046997837#0 1046997837#1 1046997837#3 1046997837#4 1069919423#0 1069919423#1 770761758#0 770761758#1 770761758#2 1069919422#0 455558436#0 1069919420 794461796#0 794461796#1 794461797#0 794461797#1 794461797#2 -266255177#1 -266255177#0 -106768827#1 -1069919425#1 -1069919425#0 -1046997838#3 -1046997838#2 -1046997838#1 -1046997838#0 -1046997839#7 -1046997839#6" />
  <route id="route_12" edges="1046997839#6 1046997839#7 1046997838#0 1046997838#1 1046997838#2 1046997838#3 1069919425#0 1069919425#1 106609720#0 106609720#1 106609720#2 106609720#3 106609720#4" />
  <route id="route_13" edges="1046997839#6 1046997839#7 1046997838#0 1046997838#1 1046997838#2 1046997838#3 1069919425#0 1069919425#1 106768827#0 266255177#0 266255177#1" />
  <route id="route_14" edges="869986417#1 -935563495#7 -935563495#4 -935563495#3 -935563495#2" />
  <route id="route_15" edges="869986417#1 1046997833#0 1046997837#0 1046997837#1 1046997837#3 1046997837#4 1069919423#0 1069919423#1 770761758#0 770761758#1 770761758#2 1069919422#0 455558436#0 1069919420 794461796#0 794461796#1 794461797#0 794461797#1 794461797#2 -266255177#1 -266255177#0 -106768827#1 -1069919425#1 -1069919425#0 -1046997838#3 -1046997838#2 -1046997838#1 -1046997838#0 -1046997839#7 -1046997839#6" />
  <route id="route_16" edges="869986417#1 1046997833#0 1046997837#0 1046997837#1 1046997837#3 1046997837#4 1069919423#0 1069919423#1 770761758#0 770761758#1 770761758#2 1069919422#0 455558436#0 1069919420 794461796#0 794461796#1 794461797#0 794461797#1 794461797#2 -266255177#1 -266255177#0 -106768827#1 106609720#0 106609720#1 106609720#2 106609720#3 106609720#4" />
  <route id="route_17" edges="869986417#1 106768827#0 266255177#0 266255177#1" />
  <route id="route_18" edges="935563495#2 935563495#3 935563495#4 935563495#6 -1069919425#1 -1069919425#0 -1046997838#3 -1046997838#2 -1046997838#1 -1046997838#0 -1046997839#7 -1046997839#6" />
  <route id="route_19" edges="1046997839#6 1046997839#7 1046997838#0 1046997838#1 1046997838#2 1046997838#3 1069919425#0 1069919425#1 -935563495#7 -935563495#4 -935563495#3 -935563495#2" />
  <route id="route_20" edges="1046997839#6 1046997839#7 1046997838#0 1046997838#1 1046997838#2 1046997838#3 1069919425#0 1069919425#1 1046997833#0 1046997837#0 1046997837#1 1046997837#3 1046997837#4 1069919423#0 1069919423#1 770761758#0 770761758#1 770761758#2 1069919422#0 455558436#0 1069919420 794461796#0 794461796#1 794461797#0 794461797#1 794461797#2 -266255177#1 -266255177#0 -106768827#1 -1069919425#1 -1069919425#0 -1046997838#3 -1046997838#2 -1046997838#1 -1046997838#0 -1046997839#7 -1046997839#6" />
  <route id="route_21" edges="1046997839#6 1046997839#7 1046997838#0 1046997838#1 1046997838#2 1046997838#3 1069919425#0 1069919425#1 106609720#0 106609720#1 106609720#2 106609720#3 106609720#4" />
  <route id="route_22" edges="1046997839#6 1046997839#7 1046997838#0 1046997838#1 1046997838#2 1046997838#3 1069919425#0 1069919425#1 106768827#0 266255177#0 266255177#1" />
  <route id="route_23" edges="869986417#1 -935563495#7 -935563495#4 -935563495#3 -935563495#2" />
  <route id="route_24" edges="869986417#1 1046997833#0 1046997837#0 1046997837#1 1046997837#3 1046997837#4 1069919423#0 1069919423#1 770761758#0 770761758#1 770761758#2 1069919422#0 455558436#0 1069919420 794461796#0 794461796#1 794461797#0 794461797#1 794461797#2 -266255177#1 -266255177#0 -106768827#1 -1069919425#1 -1069919425#0 -1046997838#3 -1046997838#2 -1046997838#1 -1046997838#0 -1046997839#7 -1046997839#6" />
  <route id="route_25" edges="869986417#1 1046997833#0 1046997837#0 1046997837#1 1046997837#3 1046997837#4 1069919423#0 1069919423#1 770761758#0 770761758#1 770761758#2 1069919422#0 455558436#0 1069919420 794461796#0 794461796#1 794461797#0 794461797#1 794461797#2 -266255177#1 -266255177#0 -106768827#1 106609720#0 106609720#1 106609720#2 106609720#3 106609720#4" />
  <route id="route_26" edges="869986417#1 106768827#0 266255177#0 266255177#1" />
  <route id="route_27" edges="935563495#2 935563495#3 935563495#4 935563495#6 -1069919425#1 -1069919425#0 -1046997838#3 -1046997838#2 -1046997838#1 -1046997838#0 -1046997839#7 -1046997839#6" />
  <route id="route_28" edges="1046997839#6 1046997839#7 1046997838#0 1046997838#1 1046997838#2 1046997838#3 1069919425#0 1069919425#1 -935563495#7 -935563495#4 -935563495#3 -935563495#2" />
  <route id="route_29" edges="1046997839#6 1046997839#7 1046997838#0 1046997838#1 1046997838#2 1046997838#3 1069919425#0 1069919425#1 1046997833#0 1046997837#0 1046997837#1 1046997837#3 1046997837#4 1069919423#0 1069919423#1 770761758#0 770761758#1 770761758#2 1069919422#0 455558436#0 1069919420 794461796#0 794461796#1 794461797#0 794461797#1 794461797#2 -266255177#1 -266255177#0 -106768827#1 -1069919425#1 -1069919425#0 -1046997838#3 -1046997838#2 -1046997838#1 -1046997838#0 -1046997839#7 -1046997839#6" />
  <route id="route_30" edges="1046997839#6 1046997839#7 1046997838#0 1046997838#1 1046997838#2 1046997838#3 1069919425#0 1069919425#1 106609720#0 106609720#1 106609720#2 106609720#3 106609720#4" />
  <route id="route_31" edges="1046997839#6 1046997839#7 1046997838#0 1046997838#1 1046997838#2 1046997838#3 1069919425#0 1069919425#1 106768827#0 266255177#0 266255177#1" />
  <route id="route_32" edges="869986417#1 -935563495#7 -935563495#4 -935563495#3 -935563495#2" />
  <route id="route_33" edges="869986417#1 1046997833#0 1046997837#0 1046997837#1 1046997837#3 1046997837#4 1069919423#0 1069919423#1 770761758#0 770761758#1 770761758#2 1069919422#0 455558436#0 1069919420 794461796#0 794461796#1 794461797#0 794461797#1 794461797#2 -266255177#1 -266255177#0 -106768827#1 -1069919425#1 -1069919425#0 -1046997838#3 -1046997838#2 -1046997838#1 -1046997838#0 -1046997839#7 -1046997839#6" />
  <route id="route_34" edges="869986417#1 1046997833#0 1046997837#0 1046997837#1 1046997837#3 1046997837#4 1069919423#0 1069919423#1 770761758#0 770761758#1 770761758#2 1069919422#0 455558436#0 1069919420 794461796#0 794461796#1 794461797#0 794461797#1 794461797#2 -266255177#1 -266255177#0 -106768827#1 106609720#0 106609720#1 106609720#2 106609720#3 106609720#4" />
  <route id="route_35" edges="869986417#1 106768827#0 266255177#0 266255177#1" />
  <route id="route_36" edges="935563495#2 935563495#3 935563495#4 935563495#6 -1069919425#1 -1069919425#0 -1046997838#3 -1046997838#2 -1046997838#1 -1046997838#0 -1046997839#7 -1046997839#6" />
  <route id="route_37" edges="1046997839#6 1046997839#7 1046997838#0 1046997838#1 1046997838#2 1046997838#3 1069919425#0 1069919425#1 -935563495#7 -935563495#4 -935563495#3 -935563495#2" />
  <route id="route_38" edges="1046997839#6 1046997839#7 1046997838#0 1046997838#1 1046997838#2 1046997838#3 1069919425#0 1069919425#1 1046997833#0 1046997837#0 1046997837#1 1046997837#3 1046997837#4 1069919423#0 1069919423#1 770761758#0 770761758#1 770761758#2 1069919422#0 455558436#0 1069919420 794461796#0 794461796#1 794461797#0 794461797#1 794461797#2 -266255177#1 -266255177#0 -106768827#1 -1069919425#1 -1069919425#0 -1046997838#3 -1046997838#2 -1046997838#1 -1046997838#0 -1046997839#7 -1046997839#6" />
  <route id="route_39" edges="1046997839#6 1046997839#7 1046997838#0 1046997838#1 1046997838#2 1046997838#3 1069919425#0 1069919425#1 106609720#0 106609720#1 106609720#2 106609720#3 106609720#4" />
  <route id="route_40" edges="1046997839#6 1046997839#7 1046997838#0 1046997838#1 1046997838#2 1046997838#3 1069919425#0 1069919425#1 106768827#0 266255177#0 266255177#1" />
  <route id="route_41" edges="869986417#1 -935563495#7 -935563495#4 -935563495#3 -935563495#2" />
  <route id="route_42" edges="869986417#1 1046997833#0 1046997837#0 1046997837#1 1046997837#3 1046997837#4 1069919423#0 1069919423#1 770761758#0 770761758#1 770761758#2 1069919422#0 455558436#0 1069919420 794461796#0 794461796#1 794461797#0 794461797#1 794461797#2 -266255177#1 -266255177#0 -106768827#1 -1069919425#1 -1069919425#0 -1046997838#3 -1046997838#2 -1046997838#1 -1046997838#0 -1046997839#7 -1046997839#6" />
  <route id="route_43" edges="869986417#1 1046997833#0 1046997837#0 1046997837#1 1046997837#3 1046997837#4 1069919423#0 1069919423#1 770761758#0 770761758#1 770761758#2 1069919422#0 455558436#0 1069919420 794461796#0 794461796#1 794461797#0 794461797#1 794461797#2 -266255177#1 -266255177#0 -106768827#1 106609720#0 106609720#1 106609720#2 106609720#3 106609720#4" />
  <route id="route_44" edges="869986417#1 106768827#0 266255177#0 266255177#1" />
  <route id="route_45" edges="935563495#2 935563495#3 935563495#4 935563495#6 -1069919425#1 -1069919425#0 -1046997838#3 -1046997838#2 -1046997838#1 -1046997838#0 -1046997839#7 -1046997839#6" />
  <route id="route_46" edges="1046997839#6 1046997839#7 1046997838#0 1046997838#1 1046997838#2 1046997838#3 1069919425#0 1069919425#1 -935563495#7 -935563495#4 -935563495#3 -935563495#2" />
  <route id="route_47" edges="1046997839#6 1046997839#7 1046997838#0 1046997838#1 1046997838#2 1046997838#3 1069919425#0 1069919425#1 1046997833#0 1046997837#0 1046997837#1 1046997837#3 1046997837#4 1069919423#0 1069919423#1 770761758#0 770761758#1 770761758#2 1069919422#0 455558436#0 1069919420 794461796#0 794461796#1 794461797#0 794461797#1 794461797#2 -266255177#1 -266255177#0 -106768827#1 -1069919425#1 -1069919425#0 -1046997838#3 -1046997838#2 -1046997838#1 -1046997838#0 -1046997839#7 -1046997839#6" />
  <route id="route_48" edges="1046997839#6 1046997839#7 1046997838#0 1046997838#1 1046997838#2 1046997838#3 1069919425#0 1069919425#1 106609720#0 106609720#1 106609720#2 106609720#3 106609720#4" />
  <route id="route_49" edges="1046997839#6 1046997839#7 1046997838#0 1046997838#1 1046997838#2 1046997838#3 1069919425#0 1069919425#1 106768827#0 266255177#0 266255177#1" />
  <route id="route_50" edges="869986417#1 -935563495#7 -935563495#4 -935563495#3 -935563495#2" />
  <route id="route_51" edges="869986417#1 1046997833#0 1046997837#0 1046997837#1 1046997837#3 1046997837#4 1069919423#0 1069919423#1 770761758#0 770761758#1 770761758#2 1069919422#0 455558436#0 1069919420 794461796#0 794461796#1 794461797#0 794461797#1 794461797#2 -266255177#1 -266255177#0 -106768827#1 -1069919425#1 -1069919425#0 -1046997838#3 -1046997838#2 -1046997838#1 -1046997838#0 -1046997839#7 -1046997839#6" />
  <route id="route_52" edges="869986417#1 1046997833#0 1046997837#0 1046997837#1 1046997837#3 1046997837#4 1069919423#0 1069919423#1 770761758#0 770761758#1 770761758#2 1069919422#0 455558436#0 1069919420 794461796#0 794461796#1 794461797#0 794461797#1 794461797#2 -266255177#1 -266255177#0 -106768827#1 106609720#0 106609720#1 106609720#2 106609720#3 106609720#4" />
  <route id="route_53" edges="869986417#1 106768827#0 266255177#0 266255177#1" />
  <route id="route_54" edges="935563495#2 935563495#3 935563495#4 935563495#6 -1069919425#1 -1069919425#0 -1046997838#3 -1046997838#2 -1046997838#1 -1046997838#0 -1046997839#7 -1046997839#6" />
  <flow id="flow_10" route="route_50" begin="0" end="3600" probability="0.055417" type="car" departLane="random" departSpeed="random" />
  <flow id="flow_11" route="route_51" begin="0" end="3600" probability="0.055417" type="car" departLane="random" departSpeed="random" />
  <flow id="flow_12" route="route_52" begin="0" end="3600" probability="0.055417" type="car" departLane="random" departSpeed="random" />
  <flow id="flow_13" route="route_53" begin="0" end="3600" probability="0.055417" type="car" departLane="random" departSpeed="random" />
  <flow id="flow_14" route="route_54" begin="0" end="3600" probability="0.055417" type="car" departLane="random" departSpeed="random" />
  <flow id="flow_15" route="route_45" begin="0" end="3600" probability="0.055417" type="car" departLane="random" departSpeed="random" />
  <flow id="flow_16" route="route_46" begin="0" end="3600" probability="0.055417" type="car" departLane="random" departSpeed="random" />
  <flow id="flow_17" route="route_47" begin="0" end="3600" probability="0.055417" type="car" departLane="random" departSpeed="random" />
  <flow id="flow_18" route="route_48" begin="0" end="3600" probability="0.055417" type="car" departLane="random" departSpeed="random" />
  <flow id="flow_19" route="route_49" begin="0" end="3600" probability="0.033750" type="motor" departLane="random" departSpeed="random" />
  <flow id="flow_20" route="route_50" begin="0" end="3600" probability="0.033750" type="motor" departLane="random" departSpeed="random" />
  <flow id="flow_21" route="route_51" begin="0" end="3600" probability="0.033750" type="motor" departLane="random" departSpeed="random" />
  <flow id="flow_22" route="route_52" begin="0" end="3600" probability="0.033750" type="motor" departLane="random" departSpeed="random" />
  <flow id="flow_23" route="route_53" begin="0" end="3600" probability="0.033750" type="motor" departLane="random" departSpeed="random" />
  <flow id="flow_24" route="route_54" begin="0" end="3600" probability="0.033750" type="motor" departLane="random" departSpeed="random" />
  <flow id="flow_25" route="route_45" begin="0" end="3600" probability="0.033750" type="motor" departLane="random" departSpeed="random" />
  <flow id="flow_26" route="route_46" begin="0" end="3600" probability="0.033750" type="motor" departLane="random" departSpeed="random" />
  <flow id="flow_27" route="route_47" begin="0" end="3600" probability="0.033750" type="motor" departLane="random" departSpeed="random" />
  <flow id="flow_28" route="route_48" begin="0" end="3600" probability="0.009167" type="jeepney" departLane="random" departSpeed="random" />
  <flow id="flow_29" route="route_49" begin="0" end="3600" probability="0.009167" type="jeepney" departLane="random" departSpeed="random" />
  <flow id="flow_30" route="route_50" begin="0" end="3600" probability="0.009167" type="jeepney" departLane="random" departSpeed="random" />
  <flow id="flow_31" route="route_51" begin="0" end="3600" probability="0.009167" type="jeepney" departLane="random" departSpeed="random" />
  <flow id="flow_32" route="route_52" begin="0" end="3600" probability="0.009167" type="jeepney" departLane="random" departSpeed="random" />
  <flow id="flow_33" route="route_53" begin="0" end="3600" probability="0.009167" type="jeepney" departLane="random" departSpeed="random" />
  <flow id="flow_34" route="route_54" begin="0" end="3600" probability="0.009167" type="jeepney" departLane="random" departSpeed="random" />
  <flow id="flow_35" route="route_45" begin="0" end="3600" probability="0.009167" type="jeepney" departLane="random" departSpeed="random" />
  <flow id="flow_36" route="route_46" begin="0" end="3600" probability="0.009167" type="jeepney" departLane="random" departSpeed="random" />
  <flow id="flow_37" route="route_47" begin="0" end="3600" probability="0.001667" type="bus" departLane="random" departSpeed="random" />
  <flow id="flow_38" route="route_48" begin="0" end="3600" probability="0.001667" type="bus" departLane="random" departSpeed="random" />
  <flow id="flow_39" route="route_49" begin="0" end="3600" probability="0.001667" type="bus" departLane="random" departSpeed="random" />
  <flow id="flow_40" route="route_50" begin="0" end="3600" probability="0.001667" type="bus" departLane="random" departSpeed="random" />
  <flow id="flow_41" route="route_51" begin="0" end="3600" probability="0.001667" type="bus" departLane="random" departSpeed="random" />
  <flow id="flow_42" route="route_52" begin="0" end="3600" probability="0.001667" type="bus" departLane="random" departSpeed="random" />
  <flow id="flow_43" route="route_53" begin="0" end="3600" probability="0.001667" type="bus" departLane="random" departSpeed="random" />
  <flow id="flow_44" route="route_54" begin="0" end="3600" probability="0.001667" type="bus" departLane="random" departSpeed="random" />
  <flow id="flow_45" route="route_45" begin="0" end="3600" probability="0.001667" type="bus" departLane="random" departSpeed="random" />
  <flow id="flow_46" route="route_46" begin="0" end="3600" probability="0.005000" type="truck" departLane="random" departSpeed="random" />
  <flow id="flow_47" route="route_47" begin="0" end="3600" probability="0.005000" type="truck" departLane="random" departSpeed="random" />
  <flow id="flow_48" route="route_48" begin="0" end="3600" probability="0.005000" type="truck" departLane="random" departSpeed="random" />
  <flow id="flow_49" route="route_49" begin="0" end="3600" probability="0.005000" type="truck" departLane="random" departSpeed="random" />
  <flow id="flow_50" route="route_50" begin="0" end="3600" probability="0.005000" type="truck" departLane="random" departSpeed="random" />
  <flow id="flow_51" route="route_51" begin="0" end="3600" probability="0.005000" type="truck" departLane="random" departSpeed="random" />
  <flow id="flow_52" route="route_52" begin="0" end="3600" probability="0.005000" type="truck" departLane="random" departSpeed="random" />
  <flow id="flow_53" route="route_53" begin="0" end="3600" probability="0.005000" type="truck" departLane="random" departSpeed="random" />
  <flow id="flow_54" route="route_54" begin="0" end="3600" probability="0.005000" type="truck" departLane="random" departSpeed="random" />
  <route id="route_55" edges="1042538762#0 1042538762#1 1042538762#2 1042538762#3 1102489118 1042538759#1 1042538759#2 934492019#0 934492019#1 934492019#2 934492019#3 934492019#4 934492019#5 934492019#6 934492019#7 934492019#8" />
  <route id="route_56" edges="934492020#7 934492020#9 1042538760#0 1042538760#1 1042538760#2 1102489120" />
  <route id="route_57" edges="1042538762#0 1042538762#1 1042538762#2 1042538762#3 1102489118 1042538759#1 1042538759#2 934492019#0 934492019#1 934492019#2 934492019#3 934492019#4 934492019#5 934492019#6 934492019#7 934492019#8" />
  <route id="route_58" edges="934492020#7 934492020#9 1042538760#0 1042538760#1 1042538760#2 1102489120" />
  <route id="route_59" edges="1042538762#0 1042538762#1 1042538762#2 1042538762#3 1102489118 1042538759#1 1042538759#2 934492019#0 934492019#1 934492019#2 934492019#3 934492019#4 934492019#5 934492019#6 934492019#7 934492019#8" />
  <route id="route_60" edges="934492020#7 934492020#9 1042538760#0 1042538760#1 1042538760#2 1102489120" />
  <route id="route_61" edges="1042538762#0 1042538762#1 1042538762#2 1042538762#3 1102489118 1042538759#1 1042538759#2 934492019#0 934492019#1 934492019#2 934492019#3 934492019#4 934492019#5 934492019#6 934492019#7 934492019#8" />
  <route id="route_62" edges="934492020#7 934492020#9 1042538760#0 1042538760#1 1042538760#2 1102489120" />
  <route id="route_63" edges="1042538762#0 1042538762#1 1042538762#2 1042538762#3 1102489118 1042538759#1 1042538759#2 934492019#0 934492019#1 934492019#2 934492019#3 934492019#4 934492019#5 934492019#6 934492019#7 934492019#8" />
  <route id="route_64" edges="934492020#7 934492020#9 1042538760#0 1042538760#1 1042538760#2 1102489120" />
  <flow id="flow_55" route="route_55" begin="0" end="3600" probability="0.042500" type="car" departLane="random" departSpeed="random" />
  <flow id="flow_56" route="route_56" begin="0" end="3600" probability="0.042500" type="car" departLane="random" departSpeed="random" />
  <flow id="flow_57" route="route_57" begin="0" end="3600" probability="0.042500" type="motor" departLane="random" departSpeed="random" />
  <flow id="flow_58" route="route_58" begin="0" end="3600" probability="0.042500" type="motor" departLane="random" departSpeed="random" />
  <flow id="flow_59" route="route_59" begin="0" end="3600" probability="0.053750" type="jeepney" departLane="random" departSpeed="random" />
  <flow id="flow_60" route="route_60" begin="0" end="3600" probability="0.053750" type="jeepney" departLane="random" departSpeed="random" />
  <flow id="flow_61" route="route_61" begin="0" end="3600" probability="0.002500" type="bus" departLane="random" departSpeed="random" />
  <flow id="flow_62" route="route_62" begin="0" end="3600" probability="0.002500" type="bus" departLane="random" departSpeed="random" />
  <flow id="flow_63" route="route_63" begin="0" end="3600" probability="0.002500" type="truck" departLane="random" departSpeed="random" />
  <flow id="flow_64" route="route_64" begin="0" end="3600" probability="0.002500" type="truck" departLane="random" departSpeed="random" />
</routes>