<?xml version="1.0" ?>
<routes xmlns:xsi="http://www.w3.org/2001/XMLSchema-instance" xsi:noNamespaceSchemaLocation="http://sumo.dlr.de/xsd/routes_file.xsd">
    <vType id="car" accel="2.6" decel="4.5" sigma="0.5" length="5" minGap="2.5" maxSpeed="11.11" guiShape="passenger"/>
    <vType id="bus" accel="1.2" decel="4.0" sigma="0.5" length="12" minGap="3.0" maxSpeed="11.11" guiShape="bus"/>
    <vType id="jeepney" accel="1.8" decel="4.2" sigma="0.5" length="8" minGap="2.8" maxSpeed="11.11" guiShape="bus"/>
    <vType id="motor" accel="3.0" decel="5.0" sigma="0.3" length="2" minGap="1.5" maxSpeed="11.11" guiShape="motorcycle"/>
    <vType id="truck" accel="1.5" decel="3.5" sigma="0.4" length="10" minGap="3.5" maxSpeed="11.11" guiShape="truck"/>
    <route id="route_0" edges="106768821 -1069919419 -794461795 -1069919421 -934134356#1 455558436#0"/>
    <flow id="flow_0" route="route_0" begin="0" end="3600" probability="0.094000" type="car" departLane="best" departSpeed="random" departPos="random"/>
    <route id="route_1" edges="106768821 -1069919419 -794461795 -1069919421 -934134356#1 1102489115#0"/>
    <flow id="flow_1" route="route_1" begin="0" end="3600" probability="0.094000" type="car" departLane="best" departSpeed="random" departPos="random"/>
    <route id="route_2" edges="-794461797#2 -794461797#1 -794461797#0 -794461796#1 -794461796#0 24224171#0 24224171#2 794461795 1069919419 106768822"/>
    <flow id="flow_2" route="route_2" begin="0" end="3600" probability="0.094000" type="car" departLane="best" departSpeed="random" departPos="random"/>
    <route id="route_3" edges="-794461797#2 -794461797#1 -794461797#0 -794461796#1 -794461796#0 -1069919420 -455558436#1 1102489115#0"/>
    <flow id="flow_3" route="route_3" begin="0" end="3600" probability="0.023500" type="car" departLane="random" departSpeed="random" departPos="random"/>
    <route id="route_4" edges="106768821 -1069919419 -794461795 -1069919421 -934134356#1 455558436#0"/>
    <flow id="flow_4" route="route_4" begin="0" end="3600" probability="0.050500" type="motor" departLane="best" departSpeed="random" departPos="random"/>
    <route id="route_5" edges="106768821 -1069919419 -794461795 -1069919421 -934134356#1 1102489115#0"/>
    <flow id="flow_5" route="route_5" begin="0" end="3600" probability="0.050500" type="motor" departLane="best" departSpeed="random" departPos="random"/>
    <route id="route_6" edges="-794461797#2 -794461797#1 -794461797#0 -794461796#1 -794461796#0 24224171#0 24224171#2 794461795 1069919419 106768822"/>
    <flow id="flow_6" route="route_6" begin="0" end="3600" probability="0.050500" type="motor" departLane="best" departSpeed="random" departPos="random"/>
    <route id="route_7" edges="-794461797#2 -794461797#1 -794461797#0 -794461796#1 -794461796#0 -1069919420 -455558436#1 1102489115#0"/>
    <flow id="flow_7" route="route_7" begin="0" end="3600" probability="0.012625" type="motor" departLane="random" departSpeed="random" departPos="random"/>
    <route id="route_8" edges="106768821 -1069919419 -794461795 -1069919421 -934134356#1 455558436#0"/>
    <flow id="flow_8" route="route_8" begin="0" end="3600" probability="0.015500" type="jeepney" departLane="best" departSpeed="random" departPos="random"/>
    <route id="route_9" edges="106768821 -1069919419 -794461795 -1069919421 -934134356#1 1102489115#0"/>
    <flow id="flow_9" route="route_9" begin="0" end="3600" probability="0.015500" type="jeepney" departLane="best" departSpeed="random" departPos="random"/>
    <route id="route_10" edges="-794461797#2 -794461797#1 -794461797#0 -794461796#1 -794461796#0 24224171#0 24224171#2 794461795 1069919419 106768822"/>
    <flow id="flow_10" route="route_10" begin="0" end="3600" probability="0.015500" type="jeepney" departLane="best" departSpeed="random" departPos="random"/>
    <route id="route_11" edges="-794461797#2 -794461797#1 -794461797#0 -794461796#1 -794461796#0 -1069919420 -455558436#1 1102489115#0"/>
    <flow id="flow_11" route="route_11" begin="0" end="3600" probability="0.003875" type="jeepney" departLane="random" departSpeed="random" departPos="random"/>
    <route id="route_12" edges="106768821 -1069919419 -794461795 -1069919421 -934134356#1 455558436#0"/>
    <flow id="flow_12" route="route_12" begin="0" end="3600" probability="0.001500" type="bus" departLane="best" departSpeed="random" departPos="random"/>
    <route id="route_13" edges="106768821 -1069919419 -794461795 -1069919421 -934134356#1 1102489115#0"/>
    <flow id="flow_13" route="route_13" begin="0" end="3600" probability="0.001500" type="bus" departLane="best" departSpeed="random" departPos="random"/>
    <route id="route_14" edges="-794461797#2 -794461797#1 -794461797#0 -794461796#1 -794461796#0 24224171#0 24224171#2 794461795 1069919419 106768822"/>
    <flow id="flow_14" route="route_14" begin="0" end="3600" probability="0.001500" type="bus" departLane="best" departSpeed="random" departPos="random"/>
    <route id="route_15" edges="-794461797#2 -794461797#1 -794461797#0 -794461796#1 -794461796#0 -1069919420 -455558436#1 1102489115#0"/>
    <flow id="flow_15" route="route_15" begin="0" end="3600" probability="0.000375" type="bus" departLane="random" departSpeed="random" departPos="random"/>
    <route id="route_16" edges="106768821 -1069919419 -794461795 -1069919421 -934134356#1 455558436#0"/>
    <flow id="flow_16" route="route_16" begin="0" end="3600" probability="0.003000" type="truck" departLane="best" departSpeed="random" departPos="random"/>
    <route id="route_17" edges="106768821 -1069919419 -794461795 -1069919421 -934134356#1 1102489115#0"/>
    <flow id="flow_17" route="route_17" begin="0" end="3600" probability="0.003000" type="truck" departLane="best" departSpeed="random" departPos="random"/>
    <route id="route_18" edges="-794461797#2 -794461797#1 -794461797#0 -794461796#1 -794461796#0 24224171#0 24224171#2 794461795 1069919419 106768822"/>
    <flow id="flow_18" route="route_18" begin="0" end="3600" probability="0.003000" type="truck" departLane="best" departSpeed="random" departPos="random"/>
    <route id="route_19" edges="-794461797#2 -794461797#1 -794461797#0 -794461796#1 -794461796#0 -1069919420 -455558436#1 1102489115#0"/>
    <flow id="flow_19" route="route_19" begin="0" end="3600" probability="0.000750" type="truck" departLane="random" departSpeed="random" departPos="random"/>
</routes>