<?xml version="1.0" ?>
<routes xmlns:xsi="http://www.w3.org/2001/XMLSchema-instance" xsi:noNamespaceSchemaLocation="http://sumo.dlr.de/xsd/routes_file.xsd">
    <vType id="car" accel="2.6" decel="4.5" sigma="0.5" length="5" minGap="2.5" maxSpeed="11.11" guiShape="passenger"/>
    <vType id="bus" accel="1.2" decel="4.0" sigma="0.5" length="12" minGap="3.0" maxSpeed="11.11" guiShape="bus"/>
    <vType id="jeepney" accel="1.8" decel="4.2" sigma="0.5" length="8" minGap="2.8" maxSpeed="11.11" guiShape="bus"/>
    <vType id="motor" accel="3.0" decel="5.0" sigma="0.3" length="2" minGap="1.5" maxSpeed="11.11" guiShape="motorcycle"/>
    <vType id="truck" accel="1.5" decel="3.5" sigma="0.4" length="10" minGap="3.5" maxSpeed="11.11" guiShape="truck"/>
    <route id="route_0" edges="1042538762#0 1042538762#1 1042538762#2 1042538762#3 1102489118 1042538759#1 1042538759#2 934492019#0 934492019#1 934492019#2 934492019#3 934492019#4 934492019#5 934492019#6 934492019#7 934492019#8"/>
    <flow id="flow_0" route="route_0" begin="0" end="3600" probability="0.051000" type="car" departLane="best" departSpeed="random" departPos="random"/>
    <route id="route_1" edges="934492020#7 934492020#9 1042538760#0 1042538760#1 1042538760#2 1102489120"/>
    <flow id="flow_1" route="route_1" begin="0" end="3600" probability="0.051000" type="car" departLane="best" departSpeed="random" departPos="random"/>
    <route id="route_2" edges="1042538762#0 1042538762#1 1042538762#2 1042538762#3 1102489118 1042538759#1 1042538759#2 934492019#0 934492019#1 934492019#2 934492019#3 934492019#4 934492019#5 934492019#6 934492019#7 934492019#8"/>
    <flow id="flow_2" route="route_2" begin="0" end="3600" probability="0.051000" type="motor" departLane="best" departSpeed="random" departPos="random"/>
    <route id="route_3" edges="934492020#7 934492020#9 1042538760#0 1042538760#1 1042538760#2 1102489120"/>
    <flow id="flow_3" route="route_3" begin="0" end="3600" probability="0.051000" type="motor" departLane="best" departSpeed="random" departPos="random"/>
    <route id="route_4" edges="1042538762#0 1042538762#1 1042538762#2 1042538762#3 1102489118 1042538759#1 1042538759#2 934492019#0 934492019#1 934492019#2 934492019#3 934492019#4 934492019#5 934492019#6 934492019#7 934492019#8"/>
    <flow id="flow_4" route="route_4" begin="0" end="3600" probability="0.064500" type="jeepney" departLane="best" departSpeed="random" departPos="random"/>
    <route id="route_5" edges="934492020#7 934492020#9 1042538760#0 1042538760#1 1042538760#2 1102489120"/>
    <flow id="flow_5" route="route_5" begin="0" end="3600" probability="0.064500" type="jeepney" departLane="best" departSpeed="random" departPos="random"/>
    <route id="route_6" edges="1042538762#0 1042538762#1 1042538762#2 1042538762#3 1102489118 1042538759#1 1042538759#2 934492019#0 934492019#1 934492019#2 934492019#3 934492019#4 934492019#5 934492019#6 934492019#7 934492019#8"/>
    <flow id="flow_6" route="route_6" begin="0" end="3600" probability="0.003000" type="bus" departLane="best" departSpeed="random" departPos="random"/>
    <route id="route_7" edges="934492020#7 934492020#9 1042538760#0 1042538760#1 1042538760#2 1102489120"/>
    <flow id="flow_7" route="route_7" begin="0" end="3600" probability="0.003000" type="bus" departLane="best" departSpeed="random" departPos="random"/>
    <route id="route_8" edges="1042538762#0 1042538762#1 1042538762#2 1042538762#3 1102489118 1042538759#1 1042538759#2 934492019#0 934492019#1 934492019#2 934492019#3 934492019#4 934492019#5 934492019#6 934492019#7 934492019#8"/>
    <flow id="flow_8" route="route_8" begin="0" end="3600" probability="0.003000" type="truck" departLane="best" departSpeed="random" departPos="random"/>
    <route id="route_9" edges="934492020#7 934492020#9 1042538760#0 1042538760#1 1042538760#2 1102489120"/>
    <flow id="flow_9" route="route_9" begin="0" end="3600" probability="0.003000" type="truck" departLane="best" departSpeed="random" departPos="random"/>
</routes>