<routes>
    <vType id="car" length="5.0" accel="0.8" decel="4.5" sigma="0.5" minGap="2.5" maxSpeed="100" guiShape="passenger"/>
    <vType id="motor" length="2.0" accel="1.0" decel="3.0" sigma="0.3" minGap="1.0" maxSpeed="80" guiShape="motorcycle"/>
    <vType id="jeepney" length="7.0" accel="0.7" decel="4.0" sigma="0.6" minGap="3.0" maxSpeed="60" guiShape="bus"/>
    <vType id="bus" length="12.0" accel="0.6" decel="4.5" sigma="0.7" minGap="4.0" maxSpeed="60" guiShape="bus"/>
    <vType id="truck" length="15.0" accel="0.5" decel="5.0" sigma="0.8" minGap="5.0" maxSpeed="50" guiShape="truck"/>
    <vType id="tricycle" length="3.0" accel="0.9" decel="3.5" sigma="0.4" minGap="2.0" maxSpeed="40" guiShape="motorcycle"/>
    <vehicle id="car_0" type="car" depart="0" departLane="1" departPos="random" departSpeed="max">
        <route edges="934134356#0 -455558436#1"/>
    </vehicle>
    <vehicle id="car_1" type="car" depart="1" departLane="0" departPos="random" departSpeed="max">
        <route edges="1046997838#0 1046997839#7"/>
    </vehicle>
    <vehicle id="car_2" type="car" depart="2" departLane="1" departPos="random" departSpeed="max">
        <route edges="1042538762#0 -770761758#0"/>
    </vehicle>
    <vehicle id="car_3" type="car" depart="3" departLane="0" departPos="random" departSpeed="max">
        <route edges="1102489115#0 -1046997838#0"/>
    </vehicle>
    <vehicle id="car_4" type="car" depart="4" departLane="0" departPos="random" departSpeed="max">
        <route edges="-266255177#1 770761758#1"/>
    </vehicle>
    <vehicle id="car_5" type="car" depart="5" departLane="0" departPos="random" departSpeed="max">
        <route edges="869986417#1 -24224169#1"/>
    </vehicle>
    <vehicle id="car_6" type="car" depart="6" departLane="2" departPos="random" departSpeed="max">
        <route edges="1042538760#0 1069919421"/>
    </vehicle>
    <vehicle id="car_7" type="car" depart="7" departLane="1" departPos="random" departSpeed="max">
        <route edges="-1046997838#3 -794461797#2"/>
    </vehicle>
    <vehicle id="car_8" type="car" depart="8" departLane="0" departPos="random" departSpeed="max">
        <route edges="1046997838#1 -1069919425#1"/>
    </vehicle>
    <vehicle id="car_9" type="car" depart="9" departLane="1" departPos="random" departSpeed="max">
        <route edges="1046997837#3 794461796#0"/>
    </vehicle>
    <vehicle id="car_10" type="car" depart="10" departLane="0" departPos="random" departSpeed="max">
        <route edges="-794461795 106609720#4"/>
    </vehicle>
    <vehicle id="car_11" type="car" depart="11" departLane="1" departPos="random" departSpeed="max">
        <route edges="-1069919420 106609720#1"/>
    </vehicle>
    <vehicle id="car_12" type="car" depart="12" departLane="1" departPos="random" departSpeed="max">
        <route edges="-1046997839#7 -1069919422#1"/>
    </vehicle>
    <vehicle id="car_13" type="car" depart="13" departLane="1" departPos="random" departSpeed="max">
        <route edges="794461797#0 1046997837#3"/>
    </vehicle>
    <vehicle id="car_14" type="car" depart="14" departLane="0" departPos="random" departSpeed="max">
        <route edges="1102489115#0 106609720#1"/>
    </vehicle>
    <vehicle id="car_15" type="car" depart="15" departLane="0" departPos="random" departSpeed="max">
        <route edges="1046997839#7 1046997838#0"/>
    </vehicle>
    <vehicle id="car_16" type="car" depart="16" departLane="0" departPos="random" departSpeed="max">
        <route edges="-24224169#1 -770761758#0"/>
    </vehicle>
    <vehicle id="car_17" type="car" depart="17" departLane="0" departPos="random" departSpeed="max">
        <route edges="794461796#1 -794461795"/>
    </vehicle>
    <vehicle id="car_18" type="car" depart="18" departLane="0" departPos="random" departSpeed="max">
        <route edges="794461797#0 1102489120"/>
    </vehicle>
    <vehicle id="car_19" type="car" depart="19" departLane="1" departPos="random" departSpeed="max">
        <route edges="1046997838#2 935563495#3"/>
    </vehicle>
    <vehicle id="car_20" type="car" depart="20" departLane="0" departPos="random" departSpeed="max">
        <route edges="1046997838#2 24224169#1"/>
    </vehicle>
    <vehicle id="car_21" type="car" depart="21" departLane="0" departPos="random" departSpeed="max">
        <route edges="1046997838#3 1069919423#0"/>
    </vehicle>
    <vehicle id="car_22" type="car" depart="22" departLane="1" departPos="random" departSpeed="max">
        <route edges="1046997838#1 -794461797#0"/>
    </vehicle>
    <vehicle id="car_23" type="car" depart="23" departLane="1" departPos="random" departSpeed="max">
        <route edges="106768827#0 -1069919421"/>
    </vehicle>
    <vehicle id="car_24" type="car" depart="24" departLane="0" departPos="random" departSpeed="max">
        <route edges="1046997837#0 -1046997837#1"/>
    </vehicle>
    <vehicle id="car_25" type="car" depart="25" departLane="0" departPos="random" departSpeed="max">
        <route edges="-1069919420 -794461797#0"/>
    </vehicle>
    <vehicle id="car_26" type="car" depart="26" departLane="1" departPos="random" departSpeed="max">
        <route edges="-1069919425#0 794461797#0"/>
    </vehicle>
    <vehicle id="car_27" type="car" depart="27" departLane="0" departPos="random" departSpeed="max">
        <route edges="24224169#2 1069919421"/>
    </vehicle>
    <vehicle id="car_28" type="car" depart="28" departLane="0" departPos="random" departSpeed="max">
        <route edges="24224169#6 -935563495#4"/>
    </vehicle>
    <vehicle id="car_29" type="car" depart="29" departLane="0" departPos="random" departSpeed="max">
        <route edges="1046997838#0 1046997839#6"/>
    </vehicle>
    <vehicle id="car_30" type="car" depart="30" departLane="0" departPos="random" departSpeed="max">
        <route edges="-24224169#10 106609720#1"/>
    </vehicle>
    <vehicle id="car_31" type="car" depart="31" departLane="1" departPos="random" departSpeed="max">
        <route edges="1042538762#3 -770761758#1"/>
    </vehicle>
    <vehicle id="car_32" type="car" depart="32" departLane="2" departPos="random" departSpeed="max">
        <route edges="1042538760#1 794461795"/>
    </vehicle>
    <vehicle id="car_33" type="car" depart="33" departLane="0" departPos="random" departSpeed="max">
        <route edges="-1069919423#0 -24224169#8"/>
    </vehicle>
    <vehicle id="car_34" type="car" depart="34" departLane="0" departPos="random" departSpeed="max">
        <route edges="-794461795 24224169#11"/>
    </vehicle>
    <vehicle id="car_35" type="car" depart="35" departLane="0" departPos="random" departSpeed="max">
        <route edges="1046997833#0 -770761758#0"/>
    </vehicle>
    <vehicle id="car_36" type="car" depart="36" departLane="0" departPos="random" departSpeed="max">
        <route edges="935563495#3 1102489120"/>
    </vehicle>
    <vehicle id="car_37" type="car" depart="37" departLane="0" departPos="random" departSpeed="max">
        <route edges="24224169#1 1069919419"/>
    </vehicle>
    <vehicle id="car_38" type="car" depart="38" departLane="0" departPos="random" departSpeed="max">
        <route edges="1046997837#1 794461797#0"/>
    </vehicle>
    <vehicle id="car_39" type="car" depart="39" departLane="0" departPos="random" departSpeed="max">
        <route edges="-935563495#7 1069919423#1"/>
    </vehicle>
    <vehicle id="car_40" type="car" depart="40" departLane="1" departPos="random" departSpeed="max">
        <route edges="-794461797#1 -935563495#3"/>
    </vehicle>
    <vehicle id="car_41" type="car" depart="41" departLane="1" departPos="random" departSpeed="max">
        <route edges="455558436#0 -1046997837#0"/>
    </vehicle>
    <vehicle id="car_42" type="car" depart="42" departLane="2" departPos="random" departSpeed="max">
        <route edges="1042538762#3 934134356#0"/>
    </vehicle>
    <vehicle id="car_43" type="car" depart="43" departLane="1" departPos="random" departSpeed="max">
        <route edges="794461795 770761758#1"/>
    </vehicle>
    <vehicle id="car_44" type="car" depart="44" departLane="0" departPos="random" departSpeed="max">
        <route edges="-24224169#6 -1046997838#1"/>
    </vehicle>
    <vehicle id="car_45" type="car" depart="45" departLane="1" departPos="random" departSpeed="max">
        <route edges="-1102489116 -794461797#1"/>
    </vehicle>
    <vehicle id="car_46" type="car" depart="46" departLane="1" departPos="random" departSpeed="max">
        <route edges="106768827#0 1042538759#1"/>
    </vehicle>
    <vehicle id="car_47" type="car" depart="47" departLane="2" departPos="random" departSpeed="max">
        <route edges="770761758#0 794461796#0"/>
    </vehicle>
    <vehicle id="car_48" type="car" depart="48" departLane="2" departPos="random" departSpeed="max">
        <route edges="934492020#9 794461796#0"/>
    </vehicle>
    <vehicle id="car_49" type="car" depart="49" departLane="0" departPos="random" departSpeed="max">
        <route edges="1042538762#0 794461796#0"/>
    </vehicle>
    <vehicle id="car_50" type="car" depart="50" departLane="0" departPos="random" departSpeed="max">
        <route edges="-455558436#1 934492019#4"/>
    </vehicle>
    <vehicle id="car_51" type="car" depart="51" departLane="0" departPos="random" departSpeed="max">
        <route edges="-770761758#1 106768827#0"/>
    </vehicle>
    <vehicle id="car_52" type="car" depart="52" departLane="0" departPos="random" departSpeed="max">
        <route edges="-24224169#8 -24224169#10"/>
    </vehicle>
    <vehicle id="car_53" type="car" depart="53" departLane="0" departPos="random" departSpeed="max">
        <route edges="266255177#1 1069919425#1"/>
    </vehicle>
    <vehicle id="car_54" type="car" depart="54" departLane="0" departPos="random" departSpeed="max">
        <route edges="-935563495#7 934492019#3"/>
    </vehicle>
    <vehicle id="car_55" type="car" depart="55" departLane="0" departPos="random" departSpeed="max">
        <route edges="-1046997838#3 1069919423#1"/>
    </vehicle>
    <vehicle id="car_56" type="car" depart="56" departLane="0" departPos="random" departSpeed="max">
        <route edges="24224169#2 1046997838#1"/>
    </vehicle>
    <vehicle id="car_57" type="car" depart="57" departLane="1" departPos="random" departSpeed="max">
        <route edges="934492020#5 1046997837#4"/>
    </vehicle>
    <vehicle id="car_58" type="car" depart="58" departLane="1" departPos="random" departSpeed="max">
        <route edges="-24224169#4 -1069919425#1"/>
    </vehicle>
    <vehicle id="car_59" type="car" depart="59" departLane="0" departPos="random" departSpeed="max">
        <route edges="-794461797#1 1046997833#0"/>
    </vehicle>
    <vehicle id="motor_60" type="motor" depart="0" departLane="0" departPos="random" departSpeed="max">
        <route edges="1069919423#1 -770761758#0"/>
    </vehicle>
    <vehicle id="motor_61" type="motor" depart="1" departLane="1" departPos="random" departSpeed="max">
        <route edges="24224169#6 266255177#0"/>
    </vehicle>
    <vehicle id="motor_62" type="motor" depart="2" departLane="1" departPos="random" departSpeed="max">
        <route edges="-24224169#3 24224169#2"/>
    </vehicle>
    <vehicle id="motor_63" type="motor" depart="3" departLane="1" departPos="random" departSpeed="max">
        <route edges="1102489115#0 -1046997839#7"/>
    </vehicle>
    <vehicle id="motor_64" type="motor" depart="4" departLane="1" departPos="random" departSpeed="max">
        <route edges="-1046997838#0 934134356#0"/>
    </vehicle>
    <vehicle id="motor_65" type="motor" depart="5" departLane="1" departPos="random" departSpeed="max">
        <route edges="1046997837#3 794461795"/>
    </vehicle>
    <vehicle id="motor_66" type="motor" depart="6" departLane="2" departPos="random" departSpeed="max">
        <route edges="1069919425#1 934492019#0"/>
    </vehicle>
    <vehicle id="motor_67" type="motor" depart="7" departLane="1" departPos="random" departSpeed="max">
        <route edges="-1046997839#6 -1046997838#2"/>
    </vehicle>
    <vehicle id="motor_68" type="motor" depart="8" departLane="0" departPos="random" departSpeed="max">
        <route edges="-794461796#0 -24224169#4"/>
    </vehicle>
    <vehicle id="motor_69" type="motor" depart="9" departLane="1" departPos="random" departSpeed="max">
        <route edges="770761758#1 1046997837#1"/>
    </vehicle>
    <vehicle id="motor_70" type="motor" depart="10" departLane="1" departPos="random" departSpeed="max">
        <route edges="-266255177#1 1069919419"/>
    </vehicle>
    <vehicle id="motor_71" type="motor" depart="11" departLane="1" departPos="random" departSpeed="max">
        <route edges="1046997838#3 1069919420"/>
    </vehicle>
    <vehicle id="motor_72" type="motor" depart="12" departLane="1" departPos="random" departSpeed="max">
        <route edges="794461797#1 -24224169#5"/>
    </vehicle>
    <vehicle id="motor_73" type="motor" depart="13" departLane="0" departPos="random" departSpeed="max">
        <route edges="-794461795 -1069919421"/>
    </vehicle>
    <vehicle id="motor_74" type="motor" depart="14" departLane="1" departPos="random" departSpeed="max">
        <route edges="106768827#0 -24224169#4"/>
    </vehicle>
    <vehicle id="motor_75" type="motor" depart="15" departLane="0" departPos="random" departSpeed="max">
        <route edges="935563495#4 1046997837#1"/>
    </vehicle>
    <vehicle id="motor_76" type="motor" depart="16" departLane="1" departPos="random" departSpeed="max">
        <route edges="1069919423#1 1046997839#6"/>
    </vehicle>
    <vehicle id="motor_77" type="motor" depart="17" departLane="0" departPos="random" departSpeed="max">
        <route edges="-794461797#2 -24224169#6"/>
    </vehicle>
    <vehicle id="motor_78" type="motor" depart="18" departLane="0" departPos="random" departSpeed="max">
        <route edges="-794461797#0 -770761758#2"/>
    </vehicle>
    <vehicle id="motor_79" type="motor" depart="19" departLane="0" departPos="random" departSpeed="max">
        <route edges="24224171#2 -794461796#0"/>
    </vehicle>
    <vehicle id="motor_80" type="motor" depart="20" departLane="0" departPos="random" departSpeed="max">
        <route edges="-24224169#1 1102489120"/>
    </vehicle>
    <vehicle id="motor_81" type="motor" depart="21" departLane="0" departPos="random" departSpeed="max">
        <route edges="1046997838#1 -1046997839#7"/>
    </vehicle>
    <vehicle id="motor_82" type="motor" depart="22" departLane="1" departPos="random" departSpeed="max">
        <route edges="-1046997837#0 770761758#0"/>
    </vehicle>
    <vehicle id="motor_83" type="motor" depart="23" departLane="0" departPos="random" departSpeed="max">
        <route edges="-24224169#1 -794461796#0"/>
    </vehicle>
    <vehicle id="motor_84" type="motor" depart="24" departLane="0" departPos="random" departSpeed="max">
        <route edges="-24224169#1 -1046997839#7"/>
    </vehicle>
    <vehicle id="motor_85" type="motor" depart="25" departLane="1" departPos="random" departSpeed="max">
        <route edges="-1046997838#3 106609720#2"/>
    </vehicle>
    <vehicle id="motor_86" type="motor" depart="26" departLane="1" departPos="random" departSpeed="max">
        <route edges="934492020#5 24224169#8"/>
    </vehicle>
    <vehicle id="motor_87" type="motor" depart="27" departLane="1" departPos="random" departSpeed="max">
        <route edges="-1069919421 106609720#3"/>
    </vehicle>
    <vehicle id="motor_88" type="motor" depart="28" departLane="1" departPos="random" departSpeed="max">
        <route edges="-770761758#1 -935563495#2"/>
    </vehicle>
    <vehicle id="motor_89" type="motor" depart="29" departLane="1" departPos="random" departSpeed="max">
        <route edges="-934134356#1 -24224169#8"/>
    </vehicle>
    <vehicle id="motor_90" type="motor" depart="30" departLane="1" departPos="random" departSpeed="max">
        <route edges="-794461797#0 -770761758#1"/>
    </vehicle>
    <vehicle id="motor_91" type="motor" depart="31" departLane="0" departPos="random" departSpeed="max">
        <route edges="-794461796#1 106609720#1"/>
    </vehicle>
    <vehicle id="motor_92" type="motor" depart="32" departLane="0" departPos="random" departSpeed="max">
        <route edges="794461797#0 934492019#5"/>
    </vehicle>
    <vehicle id="motor_93" type="motor" depart="33" departLane="0" departPos="random" departSpeed="max">
        <route edges="794461796#0 -106768827#1"/>
    </vehicle>
    <vehicle id="motor_94" type="motor" depart="34" departLane="1" departPos="random" departSpeed="max">
        <route edges="1069919423#0 1069919425#1"/>
    </vehicle>
    <vehicle id="motor_95" type="motor" depart="35" departLane="0" departPos="random" departSpeed="max">
        <route edges="-1102489116 934492019#2"/>
    </vehicle>
    <vehicle id="motor_96" type="motor" depart="36" departLane="1" departPos="random" departSpeed="max">
        <route edges="106768827#0 24224169#10"/>
    </vehicle>
    <vehicle id="motor_97" type="motor" depart="37" departLane="1" departPos="random" departSpeed="max">
        <route edges="1046997833#0 770761758#0"/>
    </vehicle>
    <vehicle id="motor_98" type="motor" depart="38" departLane="0" departPos="random" departSpeed="max">
        <route edges="794461795 935563495#6"/>
    </vehicle>
    <vehicle id="motor_99" type="motor" depart="39" departLane="0" departPos="random" departSpeed="max">
        <route edges="935563495#4 1042538759#2"/>
    </vehicle>
    <vehicle id="motor_100" type="motor" depart="40" departLane="1" departPos="random" departSpeed="max">
        <route edges="-24224169#6 -794461795"/>
    </vehicle>
    <vehicle id="motor_101" type="motor" depart="41" departLane="0" departPos="random" departSpeed="max">
        <route edges="-794461796#1 -266255177#0"/>
    </vehicle>
    <vehicle id="motor_102" type="motor" depart="42" departLane="1" departPos="random" departSpeed="max">
        <route edges="-455558436#1 1102489120"/>
    </vehicle>
    <vehicle id="motor_103" type="motor" depart="43" departLane="0" departPos="random" departSpeed="max">
        <route edges="770761758#0 -1069919421"/>
    </vehicle>
    <vehicle id="motor_104" type="motor" depart="44" departLane="1" departPos="random" departSpeed="max">
        <route edges="794461797#2 24224169#6"/>
    </vehicle>
    <vehicle id="motor_105" type="motor" depart="45" departLane="0" departPos="random" departSpeed="max">
        <route edges="-1046997838#1 770761758#1"/>
    </vehicle>
    <vehicle id="motor_106" type="motor" depart="46" departLane="1" departPos="random" departSpeed="max">
        <route edges="-266255177#1 266255177#1"/>
    </vehicle>
    <vehicle id="motor_107" type="motor" depart="47" departLane="2" departPos="random" departSpeed="max">
        <route edges="934492020#6 -1046997839#7"/>
    </vehicle>
    <vehicle id="motor_108" type="motor" depart="48" departLane="0" departPos="random" departSpeed="max">
        <route edges="24224169#5 -1069919420"/>
    </vehicle>
    <vehicle id="motor_109" type="motor" depart="49" departLane="1" departPos="random" departSpeed="max">
        <route edges="1046997839#7 24224169#1"/>
    </vehicle>
    <vehicle id="motor_110" type="motor" depart="50" departLane="1" departPos="random" departSpeed="max">
        <route edges="1042538762#0 106609720#2"/>
    </vehicle>
    <vehicle id="motor_111" type="motor" depart="51" departLane="0" departPos="random" departSpeed="max">
        <route edges="934492020#9 -1102489116"/>
    </vehicle>
    <vehicle id="motor_112" type="motor" depart="52" departLane="2" departPos="random" departSpeed="max">
        <route edges="1069919425#0 794461795"/>
    </vehicle>
    <vehicle id="motor_113" type="motor" depart="53" departLane="0" departPos="random" departSpeed="max">
        <route edges="-1069919425#0 -935563495#4"/>
    </vehicle>
    <vehicle id="motor_114" type="motor" depart="54" departLane="0" departPos="random" departSpeed="max">
        <route edges="-24224169#4 1042538759#1"/>
    </vehicle>
    <vehicle id="motor_115" type="motor" depart="55" departLane="0" departPos="random" departSpeed="max">
        <route edges="1046997839#6 106609720#1"/>
    </vehicle>
    <vehicle id="motor_116" type="motor" depart="56" departLane="1" departPos="random" departSpeed="max">
        <route edges="1042538760#1 -1069919425#1"/>
    </vehicle>
    <vehicle id="motor_117" type="motor" depart="57" departLane="0" departPos="random" departSpeed="max">
        <route edges="1046997839#6 -1046997837#0"/>
    </vehicle>
    <vehicle id="motor_118" type="motor" depart="58" departLane="1" departPos="random" departSpeed="max">
        <route edges="-24224169#0 -935563495#4"/>
    </vehicle>
    <vehicle id="motor_119" type="motor" depart="59" departLane="0" departPos="random" departSpeed="max">
        <route edges="1069919420 106609720#3"/>
    </vehicle>
    <vehicle id="jeepney_120" type="jeepney" depart="0" departLane="0" departPos="random" departSpeed="max">
        <route edges="24224169#10 -770761758#2"/>
    </vehicle>
    <vehicle id="jeepney_121" type="jeepney" depart="3" departLane="0" departPos="random" departSpeed="max">
        <route edges="1046997833#0 1102489120"/>
    </vehicle>
    <vehicle id="jeepney_122" type="jeepney" depart="4" departLane="0" departPos="random" departSpeed="max">
        <route edges="935563495#2 -1046997838#0"/>
    </vehicle>
    <vehicle id="jeepney_123" type="jeepney" depart="5" departLane="1" departPos="random" departSpeed="max">
        <route edges="1069919422#0 1046997838#2"/>
    </vehicle>
    <vehicle id="jeepney_124" type="jeepney" depart="6" departLane="1" departPos="random" departSpeed="max">
        <route edges="-24224169#10 -1046997837#0"/>
    </vehicle>
    <vehicle id="jeepney_125" type="jeepney" depart="7" departLane="0" departPos="random" departSpeed="max">
        <route edges="794461797#0 -934134356#1"/>
    </vehicle>
    <vehicle id="jeepney_126" type="jeepney" depart="9" departLane="1" departPos="random" departSpeed="max">
        <route edges="1046997839#7 1069919419"/>
    </vehicle>
    <vehicle id="jeepney_127" type="jeepney" depart="13" departLane="0" departPos="random" departSpeed="max">
        <route edges="1042538762#2 -794461796#0"/>
    </vehicle>
    <vehicle id="jeepney_128" type="jeepney" depart="14" departLane="0" departPos="random" departSpeed="max">
        <route edges="1069919425#1 -794461795"/>
    </vehicle>
    <vehicle id="jeepney_129" type="jeepney" depart="15" departLane="2" departPos="random" departSpeed="max">
        <route edges="1042538762#3 -1046997838#3"/>
    </vehicle>
    <vehicle id="jeepney_130" type="jeepney" depart="18" departLane="0" departPos="random" departSpeed="max">
        <route edges="-106768827#1 24224169#10"/>
    </vehicle>
    <vehicle id="jeepney_131" type="jeepney" depart="19" departLane="1" departPos="random" departSpeed="max">
        <route edges="-1046997837#0 106609720#3"/>
    </vehicle>
    <vehicle id="jeepney_132" type="jeepney" depart="21" departLane="0" departPos="random" departSpeed="max">
        <route edges="24224169#2 794461797#2"/>
    </vehicle>
    <vehicle id="jeepney_133" type="jeepney" depart="22" departLane="0" departPos="random" departSpeed="max">
        <route edges="-935563495#3 1046997838#2"/>
    </vehicle>
    <vehicle id="jeepney_134" type="jeepney" depart="23" departLane="1" departPos="random" departSpeed="max">
        <route edges="1069919420 -266255177#1"/>
    </vehicle>
    <vehicle id="jeepney_135" type="jeepney" depart="26" departLane="0" departPos="random" departSpeed="max">
        <route edges="1046997838#3 -794461797#2"/>
    </vehicle>
    <vehicle id="jeepney_136" type="jeepney" depart="27" departLane="0" departPos="random" departSpeed="max">
        <route edges="24224171#2 -934134356#1"/>
    </vehicle>
    <vehicle id="jeepney_137" type="jeepney" depart="31" departLane="0" departPos="random" departSpeed="max">
        <route edges="1046997838#1 -770761758#1"/>
    </vehicle>
    <vehicle id="jeepney_138" type="jeepney" depart="34" departLane="1" departPos="random" departSpeed="max">
        <route edges="-24224169#10 934492019#0"/>
    </vehicle>
    <vehicle id="jeepney_139" type="jeepney" depart="35" departLane="0" departPos="random" departSpeed="max">
        <route edges="-1046997837#1 24224169#5"/>
    </vehicle>
    <vehicle id="jeepney_140" type="jeepney" depart="37" departLane="1" departPos="random" departSpeed="max">
        <route edges="1069919420 106768822"/>
    </vehicle>
    <vehicle id="jeepney_141" type="jeepney" depart="39" departLane="0" departPos="random" departSpeed="max">
        <route edges="-935563495#7 -1069919425#1"/>
    </vehicle>
    <vehicle id="jeepney_142" type="jeepney" depart="42" departLane="0" departPos="random" departSpeed="max">
        <route edges="935563495#3 24224169#4"/>
    </vehicle>
    <vehicle id="jeepney_143" type="jeepney" depart="50" departLane="0" departPos="random" departSpeed="max">
        <route edges="1046997838#2 794461795"/>
    </vehicle>
    <vehicle id="jeepney_144" type="jeepney" depart="56" departLane="0" departPos="random" departSpeed="max">
        <route edges="1042538760#2 934492019#1"/>
    </vehicle>
    <vehicle id="bus_145" type="bus" depart="0" departLane="0" departPos="random" departSpeed="max">
        <route edges="-1069919419 794461796#0"/>
    </vehicle>
    <vehicle id="bus_146" type="bus" depart="4" departLane="0" departPos="random" departSpeed="max">
        <route edges="24224169#5 1069919419"/>
    </vehicle>
    <vehicle id="bus_147" type="bus" depart="8" departLane="0" departPos="random" departSpeed="max">
        <route edges="-770761758#2 -1069919422#1"/>
    </vehicle>
    <vehicle id="bus_148" type="bus" depart="9" departLane="0" departPos="random" departSpeed="max">
        <route edges="-935563495#3 -935563495#4"/>
    </vehicle>
    <vehicle id="bus_149" type="bus" depart="15" departLane="0" departPos="random" departSpeed="max">
        <route edges="-1069919425#0 935563495#6"/>
    </vehicle>
    <vehicle id="bus_150" type="bus" depart="17" departLane="0" departPos="random" departSpeed="max">
        <route edges="24224169#2 -1069919423#1"/>
    </vehicle>
    <vehicle id="bus_151" type="bus" depart="24" departLane="0" departPos="random" departSpeed="max">
        <route edges="-1046997837#0 24224169#10"/>
    </vehicle>
    <vehicle id="bus_152" type="bus" depart="30" departLane="0" departPos="random" departSpeed="max">
        <route edges="-1069919419 1102489118"/>
    </vehicle>
    <vehicle id="bus_153" type="bus" depart="41" departLane="1" departPos="random" departSpeed="max">
        <route edges="24224169#2 -266255177#1"/>
    </vehicle>
    <vehicle id="bus_154" type="bus" depart="46" departLane="2" departPos="random" departSpeed="max">
        <route edges="1069919425#0 24224169#8"/>
    </vehicle>
    <vehicle id="bus_155" type="bus" depart="56" departLane="1" departPos="random" departSpeed="max">
        <route edges="266255177#0 -106768827#1"/>
    </vehicle>
    <vehicle id="bus_156" type="bus" depart="57" departLane="1" departPos="random" departSpeed="max">
        <route edges="-1046997838#3 934492019#7"/>
    </vehicle>
    <vehicle id="truck_157" type="truck" depart="0" departLane="1" departPos="random" departSpeed="max">
        <route edges="-1069919423#1 1069919425#1"/>
    </vehicle>
    <vehicle id="truck_158" type="truck" depart="11" departLane="0" departPos="random" departSpeed="max">
        <route edges="266255177#0 -266255177#0"/>
    </vehicle>
    <vehicle id="truck_159" type="truck" depart="25" departLane="0" departPos="random" departSpeed="max">
        <route edges="935563495#2 1069919423#0"/>
    </vehicle>
    <vehicle id="truck_160" type="truck" depart="34" departLane="0" departPos="random" departSpeed="max">
        <route edges="266255177#0 794461797#1"/>
    </vehicle>
    <vehicle id="truck_161" type="truck" depart="53" departLane="1" departPos="random" departSpeed="max">
        <route edges="1046997837#3 24224169#5"/>
    </vehicle>
    <vehicle id="truck_162" type="truck" depart="56" departLane="1" departPos="random" departSpeed="max">
        <route edges="266255177#1 -1069919425#1"/>
    </vehicle>
    <vehicle id="tricycle_163" type="tricycle" depart="1" departLane="1" departPos="random" departSpeed="max">
        <route edges="1046997838#3 -1069919423#1"/>
    </vehicle>
    <vehicle id="tricycle_164" type="tricycle" depart="2" departLane="1" departPos="random" departSpeed="max">
        <route edges="1046997838#1 1069919419"/>
    </vehicle>
    <vehicle id="tricycle_165" type="tricycle" depart="3" departLane="1" departPos="random" departSpeed="max">
        <route edges="-1046997838#3 24224169#11"/>
    </vehicle>
    <vehicle id="tricycle_166" type="tricycle" depart="4" departLane="0" departPos="random" departSpeed="max">
        <route edges="770761758#1 935563495#3"/>
    </vehicle>
    <vehicle id="tricycle_167" type="tricycle" depart="5" departLane="0" departPos="random" departSpeed="max">
        <route edges="1042538762#0 1046997838#3"/>
    </vehicle>
    <vehicle id="tricycle_168" type="tricycle" depart="10" departLane="0" departPos="random" departSpeed="max">
        <route edges="-1046997838#1 -935563495#3"/>
    </vehicle>
    <vehicle id="tricycle_169" type="tricycle" depart="11" departLane="2" departPos="random" departSpeed="max">
        <route edges="934492020#6 -1069919425#1"/>
    </vehicle>
    <vehicle id="tricycle_170" type="tricycle" depart="12" departLane="0" departPos="random" departSpeed="max">
        <route edges="1069919420 -1046997839#7"/>
    </vehicle>
    <vehicle id="tricycle_171" type="tricycle" depart="14" departLane="0" departPos="random" departSpeed="max">
        <route edges="770761758#0 934492019#3"/>
    </vehicle>
    <vehicle id="tricycle_172" type="tricycle" depart="15" departLane="2" departPos="random" departSpeed="max">