<?xml version="1.0" encoding="UTF-8"?>

<!-- generated on 2025-09-09 01:18:31 by Eclipse SUMO netconvert Version 1.12.0
<configuration xmlns:xsi="http://www.w3.org/2001/XMLSchema-instance" xsi:noNamespaceSchemaLocation="http://sumo.dlr.de/xsd/netconvertConfiguration.xsd">

    <input>
        <sumo-net-file value="network/ThesisNetowrk.net.xml"/>
    </input>

    <output>
        <output-file value="network/ThesisNetowrk_validated.net.xml"/>
        <output.street-names value="true"/>
    </output>

    <processing>
        <geometry.min-radius.fix.railways value="false"/>
        <geometry.max-grade.fix value="false"/>
        <offset.disable-normalization value="true"/>
        <lefthand value="false"/>
    </processing>

    <junctions>
        <no-turnarounds value="true"/>
        <junctions.corner-detail value="5"/>
        <junctions.limit-turn-speed value="5.5"/>
        <rectangular-lane-cut value="false"/>
    </junctions>

    <pedestrian>
        <walkingareas value="false"/>
    </pedestrian>

    <report>
        <no-warnings value="true"/>
        <aggregate-warnings value="5"/>
        <error-log value="netconvert_errors.log"/>
    </report>

</configuration>
-->

<net version="1.9" junctionCornerDetail="5" limitTurnSpeed="5.50" xmlns:xsi="http://www.w3.org/2001/XMLSchema-instance" xsi:noNamespaceSchemaLocation="http://sumo.dlr.de/xsd/net_file.xsd">

    <location netOffset="-786044.09,-780205.48" convBoundary="610.51,-75.30,1632.14,1538.99" origBoundary="125.589272,7.051193,125.615001,7.065902" projParameter="+proj=utm +zone=51 +ellps=WGS84 +datum=WGS84 +units=m +no_defs"/>

    <type id="cycleway.lane|highway.primary" priority="12" numLanes="2" speed="27.78" oneway="0" bikeLaneWidth="1.25"/>
    <type id="cycleway.lane|highway.secondary" priority="11" numLanes="1" speed="27.78" oneway="0" bikeLaneWidth="1.25"/>
    <type id="cycleway.lane|highway.tertiary" priority="10" numLanes="1" speed="22.22" oneway="0" bikeLaneWidth="1.25"/>
    <type id="highway.primary" priority="12" numLanes="2" speed="27.78" oneway="0"/>
    <type id="highway.tertiary" priority="10" numLanes="1" speed="22.22" oneway="0"/>

    <edge id=":10088669951_0" function="internal">
        <lane id=":10088669951_0_0" index="0" speed="11.11" length="0.10" shape="1355.88,1030.86 1355.88,1030.86"/>
        <lane id=":10088669951_0_1" index="1" speed="11.11" length="0.10" shape="1352.77,1030.11 1352.77,1030.11"/>
    </edge>
    <edge id=":10088669951_2" function="internal">
        <lane id=":10088669951_2_0" index="0" speed="3.65" length="2.34" shape="1352.77,1030.11 1351.71,1031.09 1350.84,1031.30"/>
    </edge>
    <edge id=":10088669951_6" function="internal">
        <lane id=":10088669951_6_0" index="0" speed="3.65" length="2.34" shape="1350.84,1031.30 1350.15,1030.72 1349.65,1029.37"/>
    </edge>
    <edge id=":10088669951_3" function="internal">
        <lane id=":10088669951_3_0" index="0" speed="11.11" length="0.10" shape="1346.54,1028.62 1346.54,1028.62"/>
        <lane id=":10088669951_3_1" index="1" speed="11.11" length="0.10" shape="1349.65,1029.37 1349.65,1029.37"/>
    </edge>
    <edge id=":10088669951_5" function="internal">
        <lane id=":10088669951_5_0" index="0" speed="3.65" length="2.34" shape="1349.65,1029.37 1350.71,1028.39 1351.58,1028.18"/>
    </edge>
    <edge id=":10088669951_7" function="internal">
        <lane id=":10088669951_7_0" index="0" speed="3.65" length="2.34" shape="1351.58,1028.18 1352.27,1028.76 1352.77,1030.11"/>
    </edge>
    <edge id=":10660355563_0" function="internal">
        <lane id=":10660355563_0_0" index="0" speed="11.11" length="0.29" shape="961.78,277.69 961.50,277.62"/>
        <lane id=":10660355563_0_1" index="1" speed="11.11" length="0.29" shape="962.57,274.59 962.28,274.51"/>
    </edge>
    <edge id=":10660355563_2" function="internal">
        <lane id=":10660355563_2_0" index="0" speed="11.11" length="0.31" shape="963.85,268.31 964.15,268.38"/>
        <lane id=":10660355563_2_1" index="1" speed="11.11" length="0.31" shape="963.07,271.41 963.36,271.49"/>
    </edge>
    <edge id=":10660355564_0" function="internal">
        <lane id=":10660355564_0_0" index="0" speed="11.11" length="0.30" shape="1021.72,251.38 1021.58,251.12"/>
        <lane id=":10660355564_0_1" index="1" speed="11.11" length="0.30" shape="1024.53,249.85 1024.38,249.58"/>
    </edge>
    <edge id=":10660355565_0" function="internal">
        <lane id=":10660355565_0_0" index="0" speed="11.11" length="0.30" shape="997.76,286.78 997.47,286.71"/>
        <lane id=":10660355565_0_1" index="1" speed="11.11" length="0.30" shape="998.54,283.68 998.25,283.61"/>
    </edge>
    <edge id=":10660355565_2" function="internal">
        <lane id=":10660355565_2_0" index="0" speed="11.11" length="0.30" shape="1000.60,274.30 1000.89,274.37"/>
        <lane id=":10660355565_2_1" index="1" speed="11.11" length="0.30" shape="999.82,277.40 1000.11,277.47"/>
        <lane id=":10660355565_2_2" index="2" speed="11.11" length="0.30" shape="999.04,280.50 999.33,280.58"/>
    </edge>
    <edge id=":11801509147_0" function="internal">
        <lane id=":11801509147_0_0" index="0" speed="11.11" length="0.10" shape="1124.32,1354.97 1124.32,1354.97"/>
        <lane id=":11801509147_0_1" index="1" speed="11.11" length="0.10" shape="1125.07,1351.86 1125.07,1351.86"/>
        <lane id=":11801509147_0_2" index="2" speed="11.11" length="0.10" shape="1125.82,1348.75 1125.82,1348.75"/>
    </edge>
    <edge id=":11801509158_0" function="internal">
        <lane id=":11801509158_0_0" index="0" speed="11.11" length="0.30" shape="1102.18,1349.61 1101.89,1349.53"/>
        <lane id=":11801509158_0_1" index="1" speed="11.11" length="0.30" shape="1102.94,1346.50 1102.64,1346.42"/>
        <lane id=":11801509158_0_2" index="2" speed="11.11" length="0.30" shape="1103.69,1343.39 1103.40,1343.31"/>
    </edge>
    <edge id=":11801509159_0" function="internal">
        <lane id=":11801509159_0_0" index="0" speed="11.11" length="0.30" shape="1028.32,1331.59 1028.03,1331.52"/>
        <lane id=":11801509159_0_1" index="1" speed="11.11" length="0.30" shape="1029.09,1328.49 1028.79,1328.41"/>
        <lane id=":11801509159_0_2" index="2" speed="11.11" length="0.30" shape="1029.85,1325.38 1029.56,1325.31"/>
    </edge>
    <edge id=":11801509168_0" function="internal">
        <lane id=":11801509168_0_0" index="0" speed="11.11" length="0.30" shape="1003.50,1325.46 1003.21,1325.39"/>
        <lane id=":11801509168_0_1" index="1" speed="11.11" length="0.30" shape="1004.27,1322.36 1003.97,1322.28"/>
        <lane id=":11801509168_0_2" index="2" speed="11.11" length="0.30" shape="1005.03,1319.25 1004.74,1319.18"/>
    </edge>
    <edge id=":1227895726_0" function="internal">
        <lane id=":1227895726_0_0" index="0" speed="11.11" length="0.30" shape="796.45,1275.25 796.17,1275.18"/>
        <lane id=":1227895726_0_1" index="1" speed="11.11" length="0.30" shape="797.20,1272.14 796.90,1272.07"/>
        <lane id=":1227895726_0_2" index="2" speed="11.11" length="0.30" shape="797.95,1269.02 797.64,1268.95"/>
    </edge>
    <edge id=":1227895739_0" function="internal">
        <lane id=":1227895739_0_0" index="0" speed="11.11" length="0.30" shape="822.45,1281.52 822.15,1281.45"/>
        <lane id=":1227895739_0_1" index="1" speed="11.11" length="0.30" shape="823.20,1278.41 822.90,1278.33"/>
        <lane id=":1227895739_0_2" index="2" speed="11.11" length="0.30" shape="823.94,1275.29 823.65,1275.22"/>
    </edge>
    <edge id=":1227902874_0" function="internal">
        <lane id=":1227902874_0_0" index="0" speed="11.11" length="0.75" shape="1319.10,843.09 1318.89,842.24"/>
        <lane id=":1227902874_0_1" index="1" speed="11.11" length="0.75" shape="1322.18,842.19 1322.02,841.58"/>
    </edge>
    <edge id=":1227902874_2" function="internal">
        <lane id=":1227902874_2_0" index="0" speed="11.11" length="0.25" shape="1328.29,840.27 1328.32,840.39"/>
        <lane id=":1227902874_2_1" index="1" speed="11.11" length="0.25" shape="1325.15,840.93 1325.25,841.29"/>
    </edge>
    <edge id=":1227902876_0" function="internal">
        <lane id=":1227902876_0_0" index="0" speed="11.11" length="0.32" shape="1294.66,1282.56 1294.58,1282.89"/>
        <lane id=":1227902876_0_1" index="1" speed="11.11" length="0.32" shape="1291.55,1281.82 1291.48,1282.12"/>
    </edge>
    <edge id=":1227902876_2" function="internal">
        <lane id=":1227902876_2_0" index="0" speed="3.65" length="2.34" shape="1291.55,1281.82 1290.49,1282.80 1289.62,1283.00"/>
    </edge>
    <edge id=":1227902876_6" function="internal">
        <lane id=":1227902876_6_0" index="0" speed="3.65" length="2.34" shape="1289.62,1283.00 1288.94,1282.43 1288.44,1281.08"/>
    </edge>
    <edge id=":1227902876_3" function="internal">
        <lane id=":1227902876_3_0" index="0" speed="11.11" length="0.27" shape="1285.26,1280.58 1285.32,1280.33"/>
        <lane id=":1227902876_3_1" index="1" speed="11.11" length="0.27" shape="1288.37,1281.35 1288.44,1281.08"/>
    </edge>
    <edge id=":1227902876_5" function="internal">
        <lane id=":1227902876_5_0" index="0" speed="3.65" length="2.34" shape="1288.37,1281.35 1289.44,1280.38 1290.31,1280.18"/>
    </edge>
    <edge id=":1227902876_7" function="internal">
        <lane id=":1227902876_7_0" index="0" speed="3.65" length="2.34" shape="1290.31,1280.18 1290.99,1280.76 1291.48,1282.12"/>
    </edge>
    <edge id=":1227907803_0" function="internal">
        <lane id=":1227907803_0_0" index="0" speed="3.65" length="4.67" shape="610.13,187.71 609.15,186.65 608.96,185.78 609.53,185.10 610.89,184.61"/>
    </edge>
    <edge id=":1227907814_0" function="internal">
        <lane id=":1227907814_0_0" index="0" speed="11.11" length="0.10" shape="918.16,266.68 918.16,266.68"/>
        <lane id=":1227907814_0_1" index="1" speed="11.11" length="0.10" shape="918.95,263.58 918.95,263.58"/>
    </edge>
    <edge id=":1227907814_2" function="internal">
        <lane id=":1227907814_2_0" index="0" speed="3.65" length="2.34" shape="918.95,263.58 917.98,262.51 917.79,261.64"/>
    </edge>
    <edge id=":1227907814_6" function="internal">
        <lane id=":1227907814_6_0" index="0" speed="3.65" length="2.34" shape="917.79,261.64 918.37,260.96 919.73,260.48"/>
    </edge>
    <edge id=":1227907814_3" function="internal">
        <lane id=":1227907814_3_0" index="0" speed="11.11" length="0.10" shape="920.52,257.38 920.52,257.38"/>
        <lane id=":1227907814_3_1" index="1" speed="11.11" length="0.10" shape="919.73,260.48 919.73,260.48"/>
    </edge>
    <edge id=":1227907814_5" function="internal">
        <lane id=":1227907814_5_0" index="0" speed="3.65" length="2.34" shape="919.73,260.48 920.70,261.55 920.89,262.42"/>
    </edge>
    <edge id=":1227907814_7" function="internal">
        <lane id=":1227907814_7_0" index="0" speed="3.65" length="2.34" shape="920.89,262.42 920.31,263.10 918.95,263.58"/>
    </edge>
    <edge id=":1227907815_0" function="internal">
        <lane id=":1227907815_0_0" index="0" speed="11.11" length="8.08" shape="1248.48,636.71 1243.33,630.40"/>
        <lane id=":1227907815_0_1" index="1" speed="11.11" length="8.08" shape="1250.91,634.63 1245.85,628.43"/>
    </edge>
    <edge id=":1227907815_2" function="internal">
        <lane id=":1227907815_2_0" index="0" speed="11.11" length="8.31" shape="1250.90,624.50 1252.73,626.04 1254.49,626.48 1256.28,626.91 1258.20,628.38"/>
        <lane id=":1227907815_2_1" index="1" speed="11.11" length="8.31" shape="1248.37,626.47 1250.23,628.04 1252.02,628.51 1253.82,628.96 1255.77,630.46"/>
        <lane id=":1227907815_2_2" index="2" speed="11.11" length="8.31" shape="1248.37,626.47 1253.34,632.54"/>
    </edge>
    <edge id=":1227907818_0" function="internal">
        <lane id=":1227907818_0_0" index="0" speed="11.11" length="0.35" shape="1216.80,590.13 1216.60,589.78"/>
        <lane id=":1227907818_0_1" index="1" speed="11.11" length="0.35" shape="1219.55,588.50 1219.40,588.24"/>
    </edge>
    <edge id=":1227907818_2" function="internal">
        <lane id=":1227907818_2_0" index="0" speed="3.65" length="2.34" shape="1219.55,588.50 1219.62,587.06 1220.11,586.30"/>
    </edge>
    <edge id=":1227907818_6" function="internal">
        <lane id=":1227907818_6_0" index="0" speed="3.65" length="2.34" shape="1220.11,586.30 1221.00,586.24 1222.30,586.86"/>
    </edge>
    <edge id=":1227907818_3" function="internal">
        <lane id=":1227907818_3_0" index="0" speed="11.11" length="0.15" shape="1225.00,585.14 1225.05,585.22"/>
        <lane id=":1227907818_3_1" index="1" speed="11.11" length="0.15" shape="1222.20,586.69 1222.30,586.86"/>
    </edge>
    <edge id=":1227907818_5" function="internal">
        <lane id=":1227907818_5_0" index="0" speed="3.65" length="2.34" shape="1222.20,586.69 1222.08,588.12 1221.57,588.86"/>
    </edge>
    <edge id=":1227907818_7" function="internal">
        <lane id=":1227907818_7_0" index="0" speed="3.65" length="2.34" shape="1221.57,588.86 1220.68,588.90 1219.40,588.24"/>
    </edge>
    <edge id=":1227907825_0" function="internal">
        <lane id=":1227907825_0_0" index="0" speed="11.11" length="0.64" shape="1270.20,659.45 1269.65,658.99"/>
        <lane id=":1227907825_0_1" index="1" speed="11.11" length="0.64" shape="1272.19,656.94 1271.75,656.58"/>
    </edge>
    <edge id=":1227907825_2" function="internal">
        <lane id=":1227907825_2_0" index="0" speed="11.11" length="0.24" shape="1278.08,649.36 1278.14,649.41"/>
        <lane id=":1227907825_2_1" index="1" speed="11.11" length="0.24" shape="1275.97,651.77 1276.16,651.92"/>
        <lane id=":1227907825_2_2" index="2" speed="11.11" length="0.24" shape="1273.86,654.18 1274.17,654.43"/>
    </edge>
    <edge id=":1227907834_0" function="internal">
        <lane id=":1227907834_0_0" index="0" speed="11.11" length="0.10" shape="728.00,219.74 728.00,219.74"/>
        <lane id=":1227907834_0_1" index="1" speed="11.11" length="0.10" shape="728.76,216.63 728.76,216.63"/>
    </edge>
    <edge id=":1227907834_2" function="internal">
        <lane id=":1227907834_2_0" index="0" speed="3.65" length="2.34" shape="728.76,216.63 727.78,215.57 727.59,214.70"/>
    </edge>
    <edge id=":1227907834_6" function="internal">
        <lane id=":1227907834_6_0" index="0" speed="3.65" length="2.34" shape="727.59,214.70 728.16,214.02 729.52,213.53"/>
    </edge>
    <edge id=":1227907834_3" function="internal">
        <lane id=":1227907834_3_0" index="0" speed="11.11" length="0.10" shape="730.28,210.42 730.28,210.42"/>
        <lane id=":1227907834_3_1" index="1" speed="11.11" length="0.10" shape="729.52,213.53 729.52,213.53"/>
    </edge>
    <edge id=":1227907834_5" function="internal">
        <lane id=":1227907834_5_0" index="0" speed="3.65" length="2.34" shape="729.52,213.53 730.50,214.59 730.69,215.46"/>
    </edge>
    <edge id=":1227907834_7" function="internal">
        <lane id=":1227907834_7_0" index="0" speed="3.65" length="2.34" shape="730.69,215.46 730.12,216.14 728.76,216.63"/>
    </edge>
    <edge id=":1227907840_0" function="internal">
        <lane id=":1227907840_0_0" index="0" speed="11.11" length="0.74" shape="1559.59,733.53 1559.28,732.84"/>
        <lane id=":1227907840_0_1" index="1" speed="11.11" length="0.74" shape="1559.96,730.35 1559.70,729.67"/>
    </edge>
    <edge id=":1227907840_2" function="internal">
        <lane id=":1227907840_2_0" index="0" speed="11.11" length="0.67" shape="1560.55,723.33 1560.86,722.74"/>
        <lane id=":1227907840_2_1" index="1" speed="11.11" length="0.67" shape="1560.13,726.50 1560.48,725.92"/>
    </edge>
    <edge id=":1227907841_0" function="internal">
        <lane id=":1227907841_0_0" index="0" speed="11.11" length="8.06" shape="1351.63,703.08 1343.70,701.28"/>
        <lane id=":1227907841_0_1" index="1" speed="11.11" length="8.06" shape="1352.30,699.95 1344.44,698.17"/>
        <lane id=":1227907841_0_2" index="2" speed="11.11" length="8.06" shape="1352.97,696.82 1345.18,695.06"/>
    </edge>
    <edge id=":1227907841_3" function="internal">
        <lane id=":1227907841_3_0" index="0" speed="11.11" length="8.67" shape="1347.40,685.72 1349.63,686.76 1350.85,688.18 1352.07,689.57 1354.32,690.56"/>
        <lane id=":1227907841_3_1" index="1" speed="11.11" length="8.67" shape="1346.66,688.83 1348.91,689.88 1350.14,691.30 1351.38,692.69 1353.64,693.69"/>
    </edge>
    <edge id=":1227907843_0" function="internal">
        <lane id=":1227907843_0_0" index="0" speed="11.11" length="0.27" shape="852.96,250.20 852.71,250.14"/>
        <lane id=":1227907843_0_1" index="1" speed="11.11" length="0.27" shape="853.74,247.10 853.47,247.03"/>
    </edge>
    <edge id=":1227907843_2" function="internal">
        <lane id=":1227907843_2_0" index="0" speed="3.65" length="2.34" shape="853.74,247.10 852.77,246.03 852.58,245.15"/>
    </edge>
    <edge id=":1227907843_6" function="internal">
        <lane id=":1227907843_6_0" index="0" speed="3.65" length="2.34" shape="852.58,245.15 853.17,244.48 854.53,244.00"/>
    </edge>
    <edge id=":1227907843_3" function="internal">
        <lane id=":1227907843_3_0" index="0" speed="11.11" length="0.32" shape="854.98,240.81 855.31,240.89"/>
        <lane id=":1227907843_3_1" index="1" speed="11.11" length="0.32" shape="854.22,243.92 854.53,244.00"/>
    </edge>
    <edge id=":1227907843_5" function="internal">
        <lane id=":1227907843_5_0" index="0" speed="3.65" length="2.34" shape="854.22,243.92 855.20,244.98 855.40,245.85"/>
    </edge>
    <edge id=":1227907843_7" function="internal">
        <lane id=":1227907843_7_0" index="0" speed="3.65" length="2.34" shape="855.40,245.85 854.82,246.54 853.47,247.03"/>
    </edge>
    <edge id=":1227907860_0" function="internal">
        <lane id=":1227907860_0_0" index="0" speed="11.11" length="0.50" shape="1285.72,671.35 1285.26,671.02"/>
        <lane id=":1227907860_0_1" index="1" speed="11.11" length="0.50" shape="1287.53,668.71 1287.17,668.45"/>
    </edge>
    <edge id=":1227907860_2" function="internal">
        <lane id=":1227907860_2_0" index="0" speed="11.11" length="0.19" shape="1292.90,660.74 1292.95,660.78"/>
        <lane id=":1227907860_2_1" index="1" speed="11.11" length="0.19" shape="1290.99,663.31 1291.14,663.42"/>
        <lane id=":1227907860_2_2" index="2" speed="11.11" length="0.19" shape="1289.08,665.88 1289.34,666.06"/>
    </edge>
    <edge id=":1227918163_0" function="internal">
        <lane id=":1227918163_0_0" index="0" speed="11.11" length="0.32" shape="1133.95,438.31 1133.79,438.01"/>
        <lane id=":1227918163_0_1" index="1" speed="11.11" length="0.32" shape="1136.76,436.78 1136.62,436.51"/>
    </edge>
    <edge id=":1227918163_2" function="internal">
        <lane id=":1227918163_2_0" index="0" speed="3.65" length="2.34" shape="1136.76,436.78 1136.90,435.35 1137.41,434.61"/>
    </edge>
    <edge id=":1227918163_6" function="internal">
        <lane id=":1227918163_6_0" index="0" speed="3.65" length="2.34" shape="1137.41,434.61 1138.30,434.58 1139.58,435.26"/>
    </edge>
    <edge id=":1227918163_3" function="internal">
        <lane id=":1227918163_3_0" index="0" speed="11.11" length="0.27" shape="1142.27,433.51 1142.39,433.73"/>
        <lane id=":1227918163_3_1" index="1" speed="11.11" length="0.27" shape="1139.44,435.01 1139.58,435.26"/>
    </edge>
    <edge id=":1227918163_5" function="internal">
        <lane id=":1227918163_5_0" index="0" speed="3.65" length="2.34" shape="1139.44,435.01 1139.30,436.44 1138.78,437.17"/>
    </edge>
    <edge id=":1227918163_7" function="internal">
        <lane id=":1227918163_7_0" index="0" speed="3.65" length="2.34" shape="1138.78,437.17 1137.89,437.19 1136.62,436.51"/>
    </edge>
    <edge id=":1230229700_0" function="internal">
        <lane id=":1230229700_0_0" index="0" speed="11.11" length="0.10" shape="851.10,1288.42 851.10,1288.42"/>
        <lane id=":1230229700_0_1" index="1" speed="11.11" length="0.10" shape="851.85,1285.31 851.85,1285.31"/>
        <lane id=":1230229700_0_2" index="2" speed="11.11" length="0.10" shape="852.60,1282.20 852.60,1282.20"/>
    </edge>
    <edge id=":12311507962_0" function="internal">
        <lane id=":12311507962_0_0" index="0" speed="11.11" length="0.30" shape="831.41,1283.68 831.13,1283.61"/>
        <lane id=":12311507962_0_1" index="1" speed="11.11" length="0.30" shape="832.17,1280.57 831.87,1280.49"/>
        <lane id=":12311507962_0_2" index="2" speed="11.11" length="0.30" shape="832.92,1277.45 832.62,1277.38"/>
    </edge>
    <edge id=":12389802621_0" function="internal">
        <lane id=":12389802621_0_0" index="0" speed="11.11" length="0.24" shape="1027.13,436.14 1027.08,436.37"/>
    </edge>
    <edge id=":12389802621_1" function="internal">
        <lane id=":12389802621_1_0" index="0" speed="11.11" length="0.31" shape="1023.96,435.66 1024.03,435.35"/>
    </edge>
    <edge id=":12389802626_0" function="internal">
        <lane id=":12389802626_0_0" index="0" speed="11.11" length="0.10" shape="1035.84,401.89 1035.84,401.89"/>
    </edge>
    <edge id=":12389802626_1" function="internal">
        <lane id=":12389802626_1_0" index="0" speed="11.11" length="0.10" shape="1032.74,401.11 1032.74,401.11"/>
    </edge>
    <edge id=":1255241770_0" function="internal">
        <lane id=":1255241770_0_0" index="0" speed="11.11" length="0.33" shape="1326.64,764.50 1326.63,764.84"/>
        <lane id=":1255241770_0_1" index="1" speed="11.11" length="0.33" shape="1323.44,764.37 1323.43,764.69"/>
    </edge>
    <edge id=":1255241770_2" function="internal">
        <lane id=":1255241770_2_0" index="0" speed="3.65" length="2.34" shape="1323.44,764.37 1322.60,765.54 1321.78,765.91"/>
    </edge>
    <edge id=":1255241770_6" function="internal">
        <lane id=":1255241770_6_0" index="0" speed="3.65" length="2.34" shape="1321.78,765.91 1321.00,765.48 1320.25,764.25"/>
    </edge>
    <edge id=":1255241770_3" function="internal">
        <lane id=":1255241770_3_0" index="0" speed="11.11" length="0.26" shape="1317.04,764.37 1317.05,764.13"/>
        <lane id=":1255241770_3_1" index="1" speed="11.11" length="0.26" shape="1320.23,764.53 1320.25,764.25"/>
    </edge>
    <edge id=":1255241770_5" function="internal">
        <lane id=":1255241770_5_0" index="0" speed="3.65" length="2.34" shape="1320.23,764.53 1321.09,763.37 1321.91,763.01"/>
    </edge>
    <edge id=":1255241770_7" function="internal">
        <lane id=":1255241770_7_0" index="0" speed="3.65" length="2.34" shape="1321.91,763.01 1322.69,763.45 1323.43,764.69"/>
    </edge>
    <edge id=":1255241771_0" function="internal">
        <lane id=":1255241771_0_0" index="0" speed="11.11" length="31.27" shape="1352.90,627.05 1351.23,634.59 1349.41,642.31 1348.12,650.05 1348.08,657.64"/>
        <lane id=":1255241771_0_1" index="1" speed="11.11" length="31.27" shape="1349.75,626.48 1348.07,634.06 1346.21,641.91 1344.90,649.77 1344.84,657.42"/>
    </edge>
    <edge id=":1255241771_2" function="internal">
        <lane id=":1255241771_2_0" index="0" speed="11.11" length="31.38" shape="1349.75,626.48 1348.18,634.03 1346.18,641.76 1343.79,649.37 1341.03,656.57"/>
        <lane id=":1255241771_2_1" index="1" speed="11.11" length="31.19" shape="1349.75,626.48 1347.72,633.84 1344.71,641.14 1341.30,648.31 1338.09,655.32"/>
    </edge>
    <edge id=":1255241771_4" function="internal">
        <lane id=":1255241771_4_0" index="0" speed="11.11" length="30.14" shape="1332.20,652.82 1335.35,646.03 1338.61,639.31 1341.49,632.48 1343.46,625.33"/>
        <lane id=":1255241771_4_1" index="1" speed="11.11" length="30.14" shape="1335.14,654.07 1338.33,647.17 1341.66,640.22 1344.60,633.16 1346.60,625.90"/>
    </edge>
    <edge id=":1269977760_0" function="internal">
        <lane id=":1269977760_0_0" index="0" speed="11.11" length="0.31" shape="1366.88,547.94 1366.82,548.25"/>
        <lane id=":1269977760_0_1" index="1" speed="11.11" length="0.31" shape="1363.72,547.40 1363.67,547.70"/>
    </edge>
    <edge id=":1269977760_2" function="internal">
        <lane id=":1269977760_2_0" index="0" speed="11.11" length="0.29" shape="1357.36,546.61 1357.41,546.33"/>
        <lane id=":1269977760_2_1" index="1" speed="11.11" length="0.29" shape="1360.52,547.15 1360.57,546.86"/>
    </edge>
    <edge id=":1269977762_0" function="internal">
        <lane id=":1269977762_0_0" index="0" speed="11.11" length="0.32" shape="1327.75,735.22 1327.74,735.55"/>
        <lane id=":1269977762_0_1" index="1" speed="11.11" length="0.32" shape="1324.55,735.12 1324.54,735.43"/>
    </edge>
    <edge id=":1269977762_2" function="internal">
        <lane id=":1269977762_2_0" index="0" speed="3.65" length="2.34" shape="1324.55,735.12 1323.72,736.30 1322.91,736.67"/>
    </edge>
    <edge id=":1269977762_6" function="internal">
        <lane id=":1269977762_6_0" index="0" speed="3.65" length="2.34" shape="1322.91,736.67 1322.12,736.25 1321.36,735.02"/>
    </edge>
    <edge id=":1269977762_3" function="internal">
        <lane id=":1269977762_3_0" index="0" speed="11.11" length="0.27" shape="1318.15,735.19 1318.16,734.93"/>
        <lane id=":1269977762_3_1" index="1" speed="11.11" length="0.27" shape="1321.35,735.31 1321.36,735.02"/>
    </edge>
    <edge id=":1269977762_5" function="internal">
        <lane id=":1269977762_5_0" index="0" speed="3.65" length="2.34" shape="1321.35,735.31 1322.19,734.14 1323.01,733.77"/>
    </edge>
    <edge id=":1269977762_7" function="internal">
        <lane id=":1269977762_7_0" index="0" speed="3.65" length="2.34" shape="1323.01,733.77 1323.79,734.20 1324.54,735.43"/>
    </edge>
    <edge id=":12850493004_0" function="internal">
        <lane id=":12850493004_0_0" index="0" speed="11.11" length="0.30" shape="1377.53,485.51 1377.48,485.81"/>
        <lane id=":12850493004_0_1" index="1" speed="11.11" length="0.30" shape="1374.37,484.97 1374.32,485.27"/>
    </edge>
    <edge id=":12850493004_2" function="internal">
        <lane id=":12850493004_2_0" index="0" speed="11.11" length="0.30" shape="1368.01,484.19 1368.06,483.90"/>
        <lane id=":12850493004_2_1" index="1" speed="11.11" length="0.30" shape="1371.17,484.73 1371.22,484.43"/>
    </edge>
    <edge id=":1427004893_0" function="internal">
        <lane id=":1427004893_0_0" index="0" speed="11.11" length="6.67" shape="1081.08,342.04 1079.74,340.86 1078.31,340.70 1076.79,340.60 1075.22,339.61"/>
        <lane id=":1427004893_0_1" index="1" speed="11.11" length="6.67" shape="1083.78,340.32 1082.36,339.01 1080.85,338.75 1079.26,338.56 1077.58,337.45"/>
        <lane id=":1427004893_0_2" index="2" speed="11.11" length="6.67" shape="1083.78,340.32 1082.76,338.74 1082.02,337.68 1081.20,336.69 1079.94,335.29"/>
    </edge>
    <edge id=":1427004893_3" function="internal">
        <lane id=":1427004893_3_0" index="0" speed="3.65" length="1.44" shape="1083.78,340.32 1083.81,338.88"/>
    </edge>
    <edge id=":1427004893_6" function="internal">
        <lane id=":1427004893_6_0" index="0" speed="3.65" length="3.23" shape="1083.81,338.88 1084.27,338.11 1085.16,338.02 1086.48,338.61"/>
    </edge>
    <edge id=":1427004893_4" function="internal">
        <lane id=":1427004893_4_0" index="0" speed="11.11" length="7.18" shape="1084.66,330.98 1086.15,332.62 1087.11,333.79 1087.98,335.03 1089.18,336.89"/>
        <lane id=":1427004893_4_1" index="1" speed="11.11" length="7.18" shape="1082.30,333.14 1083.67,334.65 1084.57,335.73 1085.37,336.88 1086.48,338.61"/>
    </edge>
    <edge id=":1966132989_0" function="internal">
        <lane id=":1966132989_0_0" index="0" speed="11.11" length="0.10" shape="1098.27,308.30 1098.27,308.30"/>
        <lane id=":1966132989_0_1" index="1" speed="11.11" length="0.10" shape="1099.05,305.19 1099.05,305.19"/>
    </edge>
    <edge id=":1966132989_2" function="internal">
        <lane id=":1966132989_2_0" index="0" speed="11.11" length="0.10" shape="1100.61,298.98 1100.61,298.98"/>
        <lane id=":1966132989_2_1" index="1" speed="11.11" length="0.10" shape="1099.83,302.09 1099.83,302.09"/>
    </edge>
    <edge id=":1966133015_0" function="internal">
        <lane id=":1966133015_0_0" index="0" speed="11.11" length="0.30" shape="944.93,1311.03 944.66,1310.97"/>
        <lane id=":1966133015_0_1" index="1" speed="11.11" length="0.30" shape="945.70,1307.93 945.40,1307.86"/>
        <lane id=":1966133015_0_2" index="2" speed="11.11" length="0.30" shape="946.46,1304.82 946.15,1304.74"/>
    </edge>
    <edge id=":1982421310_0" function="internal">
        <lane id=":1982421310_0_0" index="0" speed="11.11" length="8.46" shape="1461.61,719.40 1459.14,719.51 1457.48,720.36 1455.82,721.22 1453.35,721.37"/>
        <lane id=":1982421310_0_1" index="1" speed="11.11" length="8.46" shape="1462.12,716.25 1459.64,716.35 1457.97,717.19 1456.29,718.06 1453.80,718.21"/>
        <lane id=":1982421310_0_2" index="2" speed="11.11" length="8.46" shape="1462.12,716.25 1454.25,715.04"/>
    </edge>
    <edge id=":1982421310_3" function="internal">
        <lane id=":1982421310_3_0" index="0" speed="3.65" length="1.44" shape="1462.12,716.25 1461.07,715.26"/>
    </edge>
    <edge id=":1982421310_7" function="internal">
        <lane id=":1982421310_7_0" index="0" speed="3.65" length="3.23" shape="1461.07,715.26 1460.80,714.41 1461.33,713.68 1462.64,713.09"/>
    </edge>
    <edge id=":1982421310_4" function="internal">
        <lane id=":1982421310_4_0" index="0" speed="11.11" length="8.06" shape="1455.16,708.70 1463.16,709.93"/>
        <lane id=":1982421310_4_1" index="1" speed="11.11" length="8.06" shape="1454.71,711.87 1462.64,713.09"/>
    </edge>
    <edge id=":1982421310_6" function="internal">
        <lane id=":1982421310_6_0" index="0" speed="3.65" length="1.44" shape="1454.71,711.87 1455.78,712.83"/>
    </edge>
    <edge id=":1982421310_8" function="internal">