<?xml version="1.0" ?>
<routes>
  <vType id="car" accel="2.6" decel="4.5" sigma="0.5" length="4.5" maxSpeed="13.9"/>
  <vType id="motor" accel="3.0" decel="5.0" sigma="0.5" length="2.0" maxSpeed="11.0"/>
  <vType id="jeepney" accel="1.8" decel="3.5" sigma="0.6" length="6.0" maxSpeed="12.0"/>
  <vType id="bus" accel="1.5" decel="3.0" sigma="0.6" length="11.0" maxSpeed="11.0"/>
  <vType id="truck" accel="1.2" decel="3.0" sigma="0.6" length="12.0" maxSpeed="10.5"/>
  <vType id="tricycle" accel="1.5" decel="3.0" sigma="0.8" length="3.0" maxSpeed="10.0"/>
  <flow id="flow_ECOLAND_jeepney" type="jeepney" vehsPerHour="2029" begin="0" end="55" fromEdge="EC_N" to="EC_N_out"/>
  <flow id="flow_ECOLAND_bus" type="bus" vehsPerHour="196" begin="0" end="55" fromEdge="EC_N" to="EC_N_out"/>
  <flow id="flow_ECOLAND_car" type="car" vehsPerHour="12305" begin="0" end="55" fromEdge="EC_N" to="EC_N_out"/>
  <flow id="flow_ECOLAND_motor" type="motor" vehsPerHour="6611" begin="0" end="55" fromEdge="EC_N" to="EC_N_out"/>
  <flow id="flow_ECOLAND_truck" type="truck" vehsPerHour="393" begin="0" end="55" fromEdge="EC_N" to="EC_N_out"/>
  <flow id="flow_JOHNPAUL_jeepney" type="jeepney" vehsPerHour="1414" begin="0" end="56" fromEdge="JP_N" to="JP_N_out"/>
  <flow id="flow_JOHNPAUL_bus" type="bus" vehsPerHour="257" begin="0" end="56" fromEdge="JP_N" to="JP_N_out"/>
  <flow id="flow_JOHNPAUL_car" type="car" vehsPerHour="8550" begin="0" end="56" fromEdge="JP_N" to="JP_N_out"/>
  <flow id="flow_JOHNPAUL_motor" type="motor" vehsPerHour="5207" begin="0" end="56" fromEdge="JP_N" to="JP_N_out"/>
  <flow id="flow_JOHNPAUL_truck" type="truck" vehsPerHour="771" begin="0" end="56" fromEdge="JP_N" to="JP_N_out"/>
  <flow id="flow_SANDAWA_jeepney" type="jeepney" vehsPerHour="1548" begin="0" end="300" fromEdge="SD_N" to="SD_N_out"/>
  <flow id="flow_SANDAWA_bus" type="bus" vehsPerHour="72" begin="0" end="300" fromEdge="SD_N" to="SD_N_out"/>
  <flow id="flow_SANDAWA_car" type="car" vehsPerHour="1224" begin="0" end="300" fromEdge="SD_N" to="SD_N_out"/>
  <flow id="flow_SANDAWA_motor" type="motor" vehsPerHour="1224" begin="0" end="300" fromEdge="SD_N" to="SD_N_out"/>
  <flow id="flow_SANDAWA_truck" type="truck" vehsPerHour="72" begin="0" end="300" fromEdge="SD_N" to="SD_N_out"/>
</routes>
