<?xml version="1.0" encoding="UTF-8"?>
<routes xmlns:xsi="http://www.w3.org/2001/XMLSchema-instance" xsi:noNamespaceSchemaLocation="http://sumo.dlr.de/xsd/routes_file.xsd">
    
    <!-- Vehicle types -->
    <vType id="car" accel="2.6" decel="4.5" sigma="0.5" length="5" minGap="2.5" maxSpeed="55" guiShape="passenger"/>
    <vType id="bus" accel="1.2" decel="4.0" sigma="0.5" length="12" minGap="3.0" maxSpeed="30" guiShape="bus"/>
    
    <route id="route_0" edges="1042538762#3 -1102489116 -24224169#10 -24224169#8 -24224169#6 -24224169#5 -24224169#4 -24224169#3 -24224169#2 -24224169#1 -24224169#0 -1069919422#1 -770761758#2 -770761758#1 -770761758#0 -1069919423#1 -1069919423#0 -1046997837#4 -1046997837#3 -1046997837#1 -1046997837#0 -1069919424 -935563495#7 -935563495#4 -935563495#3 -935563495#2 935563495#2 935563495#3 935563495#4"/>
    <flow id="flow_0" route="route_0" begin="0" end="3600" probability="0.11" type="bus"/>

    <route id="route_1" edges="935563495#2 935563495#3 935563495#4 935563495#6 1046997833#0 1046997837#0 1046997837#1 1046997837#3 1046997837#4 1069919423#0 1069919423#1 770761758#0 770761758#1 770761758#2 1069919422#0 1102489115#0 24224169#1 -24224169#1"/>
    <flow id="flow_1" route="route_1" begin="0" end="3600" probability="0.28" type="car"/>

    <route id="route_2" edges="1042538760#2 -1102489116 -24224169#10 -24224169#8 -24224169#6 -24224169#5 -24224169#4 -24224169#3 -24224169#2 -24224169#1 -24224169#0 455558436#0 1069919420 794461796#0 794461796#1 794461797#0 794461797#1 794461797#2 -794461797#2 -794461797#1 -794461797#0 -794461796#1"/>
    <flow id="flow_2" route="route_2" begin="0" end="3600" probability="0.15" type="bus"/>

    <route id="route_3" edges="794461797#1 794461797#2 -794461797#2 -794461797#1 -794461797#0 -794461796#1 -794461796#0 -1069919420 -455558436#1 1102489115#0 24224169#1 24224169#2 24224169#3 24224169#4 24224169#5 24224169#6 24224169#8 24224169#10 24224169#11 1102489118 1042538759#1"/>
    <flow id="flow_3" route="route_3" begin="0" end="3600" probability="0.26" type="bus"/>

    <route id="route_4" edges="-794461796#0 24224171#0 24224171#2 794461795"/>
    <flow id="flow_4" route="route_4" begin="0" end="3600" probability="0.28" type="car"/>

    <route id="route_5" edges="-24224169#3 -24224169#2 -24224169#1 -24224169#0 455558436#0 1069919420"/>
    <flow id="flow_5" route="route_5" begin="0" end="3600" probability="0.17" type="bus"/>

    <route id="route_6" edges="-1069919425#0 -1046997838#3 -1046997838#2 -1046997838#1 1046997838#1 1046997838#2 1046997838#3 1069919425#0 1069919425#1 -935563495#7 -935563495#4 -935563495#3 -935563495#2 935563495#2 935563495#3 935563495#4 935563495#6"/>
    <flow id="flow_6" route="route_6" begin="0" end="3600" probability="0.14" type="car"/>

    <route id="route_7" edges="24224169#10 -24224169#10 -24224169#8 -24224169#6 -24224169#5 -24224169#4 -24224169#3 -24224169#2 -24224169#1 -24224169#0 455558436#0 1069919420 794461796#0 -794461796#0 -1069919420 -455558436#1 1102489115#0"/>
    <flow id="flow_7" route="route_7" begin="0" end="3600" probability="0.10" type="car"/>

    <route id="route_8" edges="1042538762#2 1042538762#3 -1102489116 -24224169#10 -24224169#8 -24224169#6 -24224169#5 -24224169#4 -24224169#3 -24224169#2 -24224169#1 -24224169#0 -1069919422#1 -770761758#2 -770761758#1 -770761758#0 -1069919423#1 1069919423#1 770761758#0"/>
    <flow id="flow_8" route="route_8" begin="0" end="3600" probability="0.23" type="bus"/>

    <route id="route_9" edges="-794461795 -1069919421 -934134356#1 1102489115#0 24224169#1 -24224169#1"/>
    <flow id="flow_9" route="route_9" begin="0" end="3600" probability="0.27" type="car"/>

    <route id="route_10" edges="-770761758#2 -770761758#1 -770761758#0 -1069919423#1 1069919423#1 770761758#0 770761758#1 770761758#2 1069919422#0 1102489115#0 24224169#1 24224169#2 24224169#3 24224169#4 24224169#5 -24224169#5 -24224169#4 -24224169#3"/>
    <flow id="flow_10" route="route_10" begin="0" end="3600" probability="0.11" type="car"/>

    <route id="route_11" edges="266255177#1 -266255177#1 -266255177#0 -106768827#1 -1069919425#1 -1069919425#0"/>
    <flow id="flow_11" route="route_11" begin="0" end="3600" probability="0.15" type="bus"/>

    <route id="route_12" edges="24224169#10 -24224169#10 -24224169#8 -24224169#6 -24224169#5 -24224169#4 -24224169#3 -24224169#2 -24224169#1 -24224169#0 -1069919422#1 -770761758#2 -770761758#1 -770761758#0 -1069919423#1 -1069919423#0 -1046997837#4 -1046997837#3 -1046997837#1 -1046997837#0 -1069919424 -1069919425#1 -1069919425#0 -1046997838#3 -1046997838#2 -1046997838#1 -1046997838#0 1046997838#0"/>
    <flow id="flow_12" route="route_12" begin="0" end="3600" probability="0.11" type="car"/>

    <route id="route_13" edges="-24224169#10 -24224169#8 -24224169#6 -24224169#5 -24224169#4 -24224169#3 -24224169#2 -24224169#1 -24224169#0 -1069919422#1 -770761758#2 -770761758#1 -770761758#0 -1069919423#1 -1069919423#0 -1046997837#4 -1046997837#3 -1046997837#1 -1046997837#0 -1069919424"/>
    <flow id="flow_13" route="route_13" begin="0" end="3600" probability="0.29" type="car"/>

    <route id="route_14" edges="-1046997838#3 -1046997838#2 -1046997838#1 1046997838#1 1046997838#2 1046997838#3 1069919425#0 1069919425#1 1046997833#0 1046997837#0 1046997837#1 1046997837#3 1046997837#4 1069919423#0 1069919423#1 770761758#0 770761758#1 770761758#2 1069919422#0 1102489115#0 24224169#1"/>
    <flow id="flow_14" route="route_14" begin="0" end="3600" probability="0.13" type="bus"/>

    <route id="route_15" edges="1046997833#0 1046997837#0 1046997837#1 1046997837#3 1046997837#4 1069919423#0 1069919423#1 770761758#0 770761758#1 770761758#2 1069919422#0 1102489115#0"/>
    <flow id="flow_15" route="route_15" begin="0" end="3600" probability="0.29" type="car"/>

    <route id="route_16" edges="-794461797#0 -794461796#1 794461796#1 794461797#0 794461797#1 794461797#2"/>
    <flow id="flow_16" route="route_16" begin="0" end="3600" probability="0.26" type="car"/>

    <route id="route_17" edges="-1069919425#0 -1046997838#3 -1046997838#2 -1046997838#1 1046997838#1 1046997838#2 1046997838#3 1069919425#0 1069919425#1 1046997833#0 1046997837#0 1046997837#1 1046997837#3 1046997837#4 1069919423#0 1069919423#1 770761758#0 770761758#1 770761758#2 1069919422#0 455558436#0 1069919420 794461796#0 -794461796#0 24224171#0 24224171#2"/>
    <flow id="flow_17" route="route_17" begin="0" end="3600" probability="0.26" type="bus"/>

    <route id="route_18" edges="-770761758#1 -770761758#0 -1069919423#1 1069919423#1 770761758#0 770761758#1 770761758#2 1069919422#0 1102489115#0 24224169#1 24224169#2 24224169#3 24224169#4 24224169#5 24224169#6 24224169#8 24224169#10 24224169#11"/>
    <flow id="flow_18" route="route_18" begin="0" end="3600" probability="0.16" type="bus"/>

    <route id="route_19" edges="455558436#0 1069919420 794461796#0"/>
    <flow id="flow_19" route="route_19" begin="0" end="3600" probability="0.25" type="bus"/>

</routes>