<?xml version='1.0' encoding='utf-8'?>
<routes xmlns="http://www.w3.org/2001/XMLSchema-instance" xsi="http://www.w3.org/2001/XMLSchema-instance" noNamespaceSchemaLocation="http://sumo.dlr.de/xsd/routes_file.xsd">
  <vType id="car" accel="2.6" decel="4.5" sigma="0.5" length="5" minGap="2.5" maxSpeed="11.11" guiShape="passenger" lcStrategic="1.0" lcCooperative="1.0" lcSpeedGain="1.0" lcKeepRight="0.0" lcOvertakeRight="1.0" lcPushy="0.0" lcImpatience="0.0" />
  <vType id="bus" accel="1.2" decel="4.0" sigma="0.5" length="12" minGap="3.0" maxSpeed="11.11" guiShape="bus" lcStrategic="1.0" lcCooperative="1.0" lcSpeedGain="1.0" lcKeepRight="0.0" lcOvertakeRight="1.0" lcPushy="0.0" lcImpatience="0.0" />
  <vType id="jeepney" accel="1.8" decel="4.2" sigma="0.5" length="8" minGap="2.8" maxSpeed="11.11" guiShape="bus" lcStrategic="1.0" lcCooperative="1.0" lcSpeedGain="1.0" lcKeepRight="0.0" lcOvertakeRight="1.0" lcPushy="0.0" lcImpatience="0.0" />
  <vType id="motor" accel="3.0" decel="5.0" sigma="0.3" length="2" minGap="1.5" maxSpeed="11.11" guiShape="motorcycle" lcStrategic="1.0" lcCooperative="1.0" lcSpeedGain="1.0" lcKeepRight="0.0" lcOvertakeRight="1.0" lcPushy="0.0" lcImpatience="0.0" />
  <vType id="truck" accel="1.5" decel="3.5" sigma="0.4" length="10" minGap="3.5" maxSpeed="11.11" guiShape="truck" lcStrategic="1.0" lcCooperative="1.0" lcSpeedGain="1.0" lcKeepRight="0.0" lcOvertakeRight="1.0" lcPushy="0.0" lcImpatience="0.0" />
  <route id="route_0" edges="1069919425#1 1046997833#0" />
  <flow id="flow_0_car" route="route_0" begin="0" end="3600" period="30.0" type="car" departLane="random" departSpeed="max" departPos="random" arrivalLane="current" departPosLat="random" />
  <flow id="flow_0_motor" route="route_0" begin="0" end="3600" period="24.0" type="motor" departLane="random" departSpeed="max" departPos="random" arrivalLane="current" departPosLat="random" />
  <flow id="flow_0_jeepney" route="route_0" begin="0" end="3600" period="45.0" type="jeepney" departLane="random" departSpeed="max" departPos="random" arrivalLane="current" departPosLat="random" />
  <flow id="flow_0_bus" route="route_0" begin="0" end="3600" period="45.0" type="bus" departLane="random" departSpeed="max" departPos="random" arrivalLane="current" departPosLat="random" />
  <flow id="flow_0_truck" route="route_0" begin="0" end="3600" period="60.0" type="truck" departLane="random" departSpeed="max" departPos="random" arrivalLane="current" departPosLat="random" />
  <route id="route_1" edges="1069919425#1 106768827#0" />
  <flow id="flow_1_car" route="route_1" begin="0" end="3600" period="30.0" type="car" departLane="random" departSpeed="max" departPos="random" arrivalLane="current" departPosLat="random" />
  <flow id="flow_1_motor" route="route_1" begin="0" end="3600" period="24.0" type="motor" departLane="random" departSpeed="max" departPos="random" arrivalLane="current" departPosLat="random" />
  <flow id="flow_1_jeepney" route="route_1" begin="0" end="3600" period="45.0" type="jeepney" departLane="random" departSpeed="max" departPos="random" arrivalLane="current" departPosLat="random" />
  <flow id="flow_1_bus" route="route_1" begin="0" end="3600" period="45.0" type="bus" departLane="random" departSpeed="max" departPos="random" arrivalLane="current" departPosLat="random" />
  <flow id="flow_1_truck" route="route_1" begin="0" end="3600" period="60.0" type="truck" departLane="random" departSpeed="max" departPos="random" arrivalLane="current" departPosLat="random" />
  <route id="route_2" edges="-106768827#1 106609720#0" />
  <flow id="flow_2_car" route="route_2" begin="0" end="3600" period="50.0" type="car" departLane="random" departSpeed="max" departPos="random" arrivalLane="current" departPosLat="random" />
  <flow id="flow_2_motor" route="route_2" begin="0" end="3600" period="40.0" type="motor" departLane="random" departSpeed="max" departPos="random" arrivalLane="current" departPosLat="random" />
  <flow id="flow_2_jeepney" route="route_2" begin="0" end="3600" period="75.0" type="jeepney" departLane="random" departSpeed="max" departPos="random" arrivalLane="current" departPosLat="random" />
  <flow id="flow_2_bus" route="route_2" begin="0" end="3600" period="75.0" type="bus" departLane="random" departSpeed="max" departPos="random" arrivalLane="current" departPosLat="random" />
  <flow id="flow_2_truck" route="route_2" begin="0" end="3600" period="100.0" type="truck" departLane="random" departSpeed="max" departPos="random" arrivalLane="current" departPosLat="random" />
  <route id="route_3" edges="-106768827#1 -1069919425#1" />
  <flow id="flow_3_car" route="route_3" begin="0" end="3600" period="50.0" type="car" departLane="random" departSpeed="max" departPos="random" arrivalLane="current" departPosLat="random" />
  <flow id="flow_3_motor" route="route_3" begin="0" end="3600" period="40.0" type="motor" departLane="random" departSpeed="max" departPos="random" arrivalLane="current" departPosLat="random" />
  <flow id="flow_3_jeepney" route="route_3" begin="0" end="3600" period="75.0" type="jeepney" departLane="random" departSpeed="max" departPos="random" arrivalLane="current" departPosLat="random" />
  <flow id="flow_3_bus" route="route_3" begin="0" end="3600" period="75.0" type="bus" departLane="random" departSpeed="max" departPos="random" arrivalLane="current" departPosLat="random" />
  <flow id="flow_3_truck" route="route_3" begin="0" end="3600" period="100.0" type="truck" departLane="random" departSpeed="max" departPos="random" arrivalLane="current" departPosLat="random" />
</routes>