<?xml version="1.0" ?>
<routes xmlns:xsi="http://www.w3.org/2001/XMLSchema-instance" xsi:noNamespaceSchemaLocation="http://sumo.dlr.de/xsd/routes_file.xsd">
    <vType id="car" accel="2.6" decel="4.5" sigma="0.5" length="5" minGap="2.5" maxSpeed="11.11" guiShape="passenger"/>
    <vType id="bus" accel="1.2" decel="4.0" sigma="0.5" length="12" minGap="3.0" maxSpeed="11.11" guiShape="bus"/>
    <vType id="jeepney" accel="1.8" decel="4.2" sigma="0.5" length="8" minGap="2.8" maxSpeed="11.11" guiShape="bus"/>
    <vType id="motor" accel="3.0" decel="5.0" sigma="0.3" length="2" minGap="1.5" maxSpeed="11.11" guiShape="motorcycle"/>
    <vType id="truck" accel="1.5" decel="3.5" sigma="0.4" length="10" minGap="3.5" maxSpeed="11.11" guiShape="truck"/>
    <route id="route_0" edges="106768821 -1069919419 -794461795 -1069919421 -934134356#1 1102489115#0 24224169#1 24224169#2 24224169#3 24224169#4 24224169#5 24224169#6 24224169#8 24224169#10 24224169#11 1102489120"/>
    <flow id="flow_car_0" route="route_0" begin="0" end="3600" period="12.86" type="car" departLane="random" departSpeed="random" departPos="random" arrivalLane="current" departPosLat="random"/>
    <route id="route_1" edges="106768821 -1069919419 -794461795 -1069919421 -934134356#1 1102489115#0 24224169#1 24224169#2 24224169#3 24224169#4 24224169#5 24224169#6 24224169#8 24224169#10 24224169#11 1102489118 1042538759#1 1042538759#2 934492019#0 934492019#1 934492019#2 934492019#3 934492019#4 934492019#5 934492019#6"/>
    <flow id="flow_car_1" route="route_1" begin="0" end="3600" period="38.57" type="car" departLane="random" departSpeed="random" departPos="random" arrivalLane="current" departPosLat="random"/>
    <route id="route_2" edges="106768821 -1069919419 -794461795 -1069919421 -934134356#1 -1069919422#1 -770761758#2 -770761758#1 -770761758#0 -1069919423#1 -1069919423#0 -1046997837#4 -1046997837#3 -1046997837#1 -1046997837#0 -1069919424 -935563495#7 -935563495#4 -935563495#3 -935563495#2"/>
    <flow id="flow_car_2" route="route_2" begin="0" end="3600" period="38.57" type="car" departLane="random" departSpeed="random" departPos="random" arrivalLane="current" departPosLat="random"/>
    <route id="route_3" edges="106768821 -1069919419 -794461795 -1069919421 -934134356#1 -1069919422#1 -770761758#2 -770761758#1 -770761758#0 -1069919423#1 -1069919423#0 -1046997837#4 -1046997837#3 -1046997837#1 -1046997837#0 -1069919424 -1069919425#1 -1069919425#0 -1046997838#3 -1046997838#2 -1046997838#1 -1046997838#0 -1046997839#7 -1046997839#6"/>
    <flow id="flow_car_3" route="route_3" begin="0" end="3600" period="38.57" type="car" departLane="random" departSpeed="random" departPos="random" arrivalLane="current" departPosLat="random"/>
    <route id="route_4" edges="106768821 -1069919419 -794461795 -1069919421 -934134356#1 -1069919422#1 -770761758#2 -770761758#1 -770761758#0 -1069919423#1 -1069919423#0 -1046997837#4 -1046997837#3 -1046997837#1 -1046997837#0 -1069919424 106609720#0 106609720#1 106609720#2 106609720#3 106609720#4"/>
    <flow id="flow_car_4" route="route_4" begin="0" end="3600" period="38.57" type="car" departLane="random" departSpeed="random" departPos="random" arrivalLane="current" departPosLat="random"/>
    <route id="route_5" edges="-794461797#2 -794461797#1 -794461797#0 -794461796#1 -794461796#0 24224171#0 24224171#2 794461795 1069919419 106768822"/>
    <flow id="flow_car_5" route="route_5" begin="0" end="3600" period="15.00" type="car" departLane="random" departSpeed="random" departPos="random" arrivalLane="current" departPosLat="random"/>
    <route id="route_6" edges="-794461797#2 -794461797#1 -794461797#0 -794461796#1 -794461796#0 -1069919420 -455558436#1 1102489115#0 24224169#1 24224169#2 24224169#3 24224169#4 24224169#5 24224169#6 24224169#8 24224169#10 24224169#11 1102489120"/>
    <flow id="flow_car_6" route="route_6" begin="0" end="3600" period="15.00" type="car" departLane="random" departSpeed="random" departPos="random" arrivalLane="current" departPosLat="random"/>
    <route id="route_7" edges="-794461797#2 -794461797#1 -794461797#0 -794461796#1 -794461796#0 -1069919420 -455558436#1 1102489115#0 24224169#1 24224169#2 24224169#3 24224169#4 24224169#5 24224169#6 24224169#8 24224169#10 24224169#11 1102489118 1042538759#1 1042538759#2 934492019#0 934492019#1 934492019#2 934492019#3 934492019#4 934492019#5 934492019#6"/>
    <flow id="flow_car_7" route="route_7" begin="0" end="3600" period="45.00" type="car" departLane="random" departSpeed="random" departPos="random" arrivalLane="current" departPosLat="random"/>
    <route id="route_8" edges="770761758#1 770761758#2 1069919422#0 1102489115#0"/>
    <flow id="flow_car_8" route="route_8" begin="0" end="3600" period="22.50" type="car" departLane="random" departSpeed="random" departPos="random" arrivalLane="current" departPosLat="random"/>
    <route id="route_9" edges="770761758#1 770761758#2 1069919422#0 934134356#0 1069919421 794461795 1069919419 106768822"/>
    <flow id="flow_car_9" route="route_9" begin="0" end="3600" period="22.50" type="car" departLane="random" departSpeed="random" departPos="random" arrivalLane="current" departPosLat="random"/>
    <route id="route_10" edges="-1069919421 -934134356#1 1102489115#0"/>
    <flow id="flow_car_10" route="route_10" begin="0" end="3600" period="22.50" type="car" departLane="random" departSpeed="random" departPos="random" arrivalLane="current" departPosLat="random"/>
    <route id="route_11" edges="-24224169#2 -24224169#1 -24224169#0 934134356#0 1069919421 794461795 1069919419 106768822"/>
    <flow id="flow_car_11" route="route_11" begin="0" end="3600" period="30.00" type="car" departLane="random" departSpeed="random" departPos="random" arrivalLane="current" departPosLat="random"/>
    <route id="route_12" edges="-24224169#2 -24224169#1 -24224169#0 -1069919422#1 -770761758#2 -770761758#1 -770761758#0 -1069919423#1 -1069919423#0 -1046997837#4 -1046997837#3 -1046997837#1 -1046997837#0 -1069919424 -935563495#7 -935563495#4 -935563495#3 -935563495#2"/>
    <flow id="flow_car_12" route="route_12" begin="0" end="3600" period="90.00" type="car" departLane="random" departSpeed="random" departPos="random" arrivalLane="current" departPosLat="random"/>
    <route id="route_13" edges="-24224169#2 -24224169#1 -24224169#0 -1069919422#1 -770761758#2 -770761758#1 -770761758#0 -1069919423#1 -1069919423#0 -1046997837#4 -1046997837#3 -1046997837#1 -1046997837#0 -1069919424 -1069919425#1 -1069919425#0 -1046997838#3 -1046997838#2 -1046997838#1 -1046997838#0 -1046997839#7 -1046997839#6"/>
    <flow id="flow_car_13" route="route_13" begin="0" end="3600" period="90.00" type="car" departLane="random" departSpeed="random" departPos="random" arrivalLane="current" departPosLat="random"/>
    <route id="route_14" edges="-24224169#2 -24224169#1 -24224169#0 -1069919422#1 -770761758#2 -770761758#1 -770761758#0 -1069919423#1 -1069919423#0 -1046997837#4 -1046997837#3 -1046997837#1 -1046997837#0 -1069919424 106609720#0 106609720#1 106609720#2 106609720#3 106609720#4"/>
    <flow id="flow_car_14" route="route_14" begin="0" end="3600" period="90.00" type="car" departLane="random" departSpeed="random" departPos="random" arrivalLane="current" departPosLat="random"/>
    <route id="route_15" edges="106768821 -1069919419 -794461795 -1069919421 -934134356#1 1102489115#0 24224169#1 24224169#2 24224169#3 24224169#4 24224169#5 24224169#6 24224169#8 24224169#10 24224169#11 1102489120"/>
    <flow id="flow_motor_15" route="route_15" begin="0" end="3600" period="14.86" type="motor" departLane="random" departSpeed="random" departPos="random" arrivalLane="current" departPosLat="random"/>
    <route id="route_16" edges="106768821 -1069919419 -794461795 -1069919421 -934134356#1 1102489115#0 24224169#1 24224169#2 24224169#3 24224169#4 24224169#5 24224169#6 24224169#8 24224169#10 24224169#11 1102489118 1042538759#1 1042538759#2 934492019#0 934492019#1 934492019#2 934492019#3 934492019#4 934492019#5 934492019#6"/>
    <flow id="flow_motor_16" route="route_16" begin="0" end="3600" period="44.59" type="motor" departLane="random" departSpeed="random" departPos="random" arrivalLane="current" departPosLat="random"/>
    <route id="route_17" edges="106768821 -1069919419 -794461795 -1069919421 -934134356#1 -1069919422#1 -770761758#2 -770761758#1 -770761758#0 -1069919423#1 -1069919423#0 -1046997837#4 -1046997837#3 -1046997837#1 -1046997837#0 -1069919424 -935563495#7 -935563495#4 -935563495#3 -935563495#2"/>
    <flow id="flow_motor_17" route="route_17" begin="0" end="3600" period="44.59" type="motor" departLane="random" departSpeed="random" departPos="random" arrivalLane="current" departPosLat="random"/>
    <route id="route_18" edges="106768821 -1069919419 -794461795 -1069919421 -934134356#1 -1069919422#1 -770761758#2 -770761758#1 -770761758#0 -1069919423#1 -1069919423#0 -1046997837#4 -1046997837#3 -1046997837#1 -1046997837#0 -1069919424 -1069919425#1 -1069919425#0 -1046997838#3 -1046997838#2 -1046997838#1 -1046997838#0 -1046997839#7 -1046997839#6"/>
    <flow id="flow_motor_18" route="route_18" begin="0" end="3600" period="44.59" type="motor" departLane="random" departSpeed="random" departPos="random" arrivalLane="current" departPosLat="random"/>
    <route id="route_19" edges="106768821 -1069919419 -794461795 -1069919421 -934134356#1 -1069919422#1 -770761758#2 -770761758#1 -770761758#0 -1069919423#1 -1069919423#0 -1046997837#4 -1046997837#3 -1046997837#1 -1046997837#0 -1069919424 106609720#0 106609720#1 106609720#2 106609720#3 106609720#4"/>
    <flow id="flow_motor_19" route="route_19" begin="0" end="3600" period="44.59" type="motor" departLane="random" departSpeed="random" departPos="random" arrivalLane="current" departPosLat="random"/>
    <route id="route_20" edges="-794461797#2 -794461797#1 -794461797#0 -794461796#1 -794461796#0 24224171#0 24224171#2 794461795 1069919419 106768822"/>
    <flow id="flow_motor_20" route="route_20" begin="0" end="3600" period="17.34" type="motor" departLane="random" departSpeed="random" departPos="random" arrivalLane="current" departPosLat="random"/>
    <route id="route_21" edges="-794461797#2 -794461797#1 -794461797#0 -794461796#1 -794461796#0 -1069919420 -455558436#1 1102489115#0 24224169#1 24224169#2 24224169#3 24224169#4 24224169#5 24224169#6 24224169#8 24224169#10 24224169#11 1102489120"/>
    <flow id="flow_motor_21" route="route_21" begin="0" end="3600" period="17.34" type="motor" departLane="random" departSpeed="random" departPos="random" arrivalLane="current" departPosLat="random"/>
    <route id="route_22" edges="-794461797#2 -794461797#1 -794461797#0 -794461796#1 -794461796#0 -1069919420 -455558436#1 1102489115#0 24224169#1 24224169#2 24224169#3 24224169#4 24224169#5 24224169#6 24224169#8 24224169#10 24224169#11 1102489118 1042538759#1 1042538759#2 934492019#0 934492019#1 934492019#2 934492019#3 934492019#4 934492019#5 934492019#6"/>
    <flow id="flow_motor_22" route="route_22" begin="0" end="3600" period="52.02" type="motor" departLane="random" departSpeed="random" departPos="random" arrivalLane="current" departPosLat="random"/>
    <route id="route_23" edges="770761758#1 770761758#2 1069919422#0 1102489115#0"/>
    <flow id="flow_motor_23" route="route_23" begin="0" end="3600" period="26.01" type="motor" departLane="random" departSpeed="random" departPos="random" arrivalLane="current" departPosLat="random"/>
    <route id="route_24" edges="770761758#1 770761758#2 1069919422#0 934134356#0 1069919421 794461795 1069919419 106768822"/>
    <flow id="flow_motor_24" route="route_24" begin="0" end="3600" period="26.01" type="motor" departLane="random" departSpeed="random" departPos="random" arrivalLane="current" departPosLat="random"/>
    <route id="route_25" edges="-1069919421 -934134356#1 1102489115#0"/>
    <flow id="flow_motor_25" route="route_25" begin="0" end="3600" period="26.01" type="motor" departLane="random" departSpeed="random" departPos="random" arrivalLane="current" departPosLat="random"/>
    <route id="route_26" edges="-24224169#2 -24224169#1 -24224169#0 934134356#0 1069919421 794461795 1069919419 106768822"/>
    <flow id="flow_motor_26" route="route_26" begin="0" end="3600" period="34.68" type="motor" departLane="random" departSpeed="random" departPos="random" arrivalLane="current" departPosLat="random"/>
    <route id="route_27" edges="-24224169#2 -24224169#1 -24224169#0 -1069919422#1 -770761758#2 -770761758#1 -770761758#0 -1069919423#1 -1069919423#0 -1046997837#4 -1046997837#3 -1046997837#1 -1046997837#0 -1069919424 -935563495#7 -935563495#4 -935563495#3 -935563495#2"/>
    <flow id="flow_motor_27" route="route_27" begin="0" end="3600" period="104.05" type="motor" departLane="random" departSpeed="random" departPos="random" arrivalLane="current" departPosLat="random"/>
    <route id="route_28" edges="-24224169#2 -24224169#1 -24224169#0 -1069919422#1 -770761758#2 -770761758#1 -770761758#0 -1069919423#1 -1069919423#0 -1046997837#4 -1046997837#3 -1046997837#1 -1046997837#0 -1069919424 -1069919425#1 -1069919425#0 -1046997838#3 -1046997838#2 -1046997838#1 -1046997838#0 -1046997839#7 -1046997839#6"/>
    <flow id="flow_motor_28" route="route_28" begin="0" end="3600" period="104.05" type="motor" departLane="random" departSpeed="random" departPos="random" arrivalLane="current" departPosLat="random"/>
    <route id="route_29" edges="-24224169#2 -24224169#1 -24224169#0 -1069919422#1 -770761758#2 -770761758#1 -770761758#0 -1069919423#1 -1069919423#0 -1046997837#4 -1046997837#3 -1046997837#1 -1046997837#0 -1069919424 106609720#0 106609720#1 106609720#2 106609720#3 106609720#4"/>
    <flow id="flow_motor_29" route="route_29" begin="0" end="3600" period="104.05" type="motor" departLane="random" departSpeed="random" departPos="random" arrivalLane="current" departPosLat="random"/>
    <route id="route_30" edges="106768821 -1069919419 -794461795 -1069919421 -934134356#1 1102489115#0 24224169#1 24224169#2 24224169#3 24224169#4 24224169#5 24224169#6 24224169#8 24224169#10 24224169#11 1102489120"/>
    <flow id="flow_jeepney_30" route="route_30" begin="0" end="3600" period="85.71" type="jeepney" departLane="random" departSpeed="random" departPos="random" arrivalLane="current" departPosLat="random"/>
    <route id="route_31" edges="106768821 -1069919419 -794461795 -1069919421 -934134356#1 1102489115#0 24224169#1 24224169#2 24224169#3 24224169#4 24224169#5 24224169#6 24224169#8 24224169#10 24224169#11 1102489118 1042538759#1 1042538759#2 934492019#0 934492019#1 934492019#2 934492019#3 934492019#4 934492019#5 934492019#6"/>
    <flow id="flow_jeepney_31" route="route_31" begin="0" end="3600" period="257.14" type="jeepney" departLane="random" departSpeed="random" departPos="random" arrivalLane="current" departPosLat="random"/>
    <route id="route_32" edges="106768821 -1069919419 -794461795 -1069919421 -934134356#1 -1069919422#1 -770761758#2 -770761758#1 -770761758#0 -1069919423#1 -1069919423#0 -1046997837#4 -1046997837#3 -1046997837#1 -1046997837#0 -1069919424 -935563495#7 -935563495#4 -935563495#3 -935563495#2"/>
    <flow id="flow_jeepney_32" route="route_32" begin="0" end="3600" period="257.14" type="jeepney" departLane="random" departSpeed="random" departPos="random" arrivalLane="current" departPosLat="random"/>
    <route id="route_33" edges="106768821 -1069919419 -794461795 -1069919421 -934134356#1 -1069919422#1 -770761758#2 -770761758#1 -770761758#0 -1069919423#1 -1069919423#0 -1046997837#4 -1046997837#3 -1046997837#1 -1046997837#0 -1069919424 -1069919425#1 -1069919425#0 -1046997838#3 -1046997838#2 -1046997838#1 -1046997838#0 -1046997839#7 -1046997839#6"/>
    <flow id="flow_jeepney_33" route="route_33" begin="0" end="3600" period="257.14" type="jeepney" departLane="random" departSpeed="random" departPos="random" arrivalLane="current" departPosLat="random"/>
    <route id="route_34" edges="106768821 -1069919419 -794461795 -1069919421 -934134356#1 -1069919422#1 -770761758#2 -770761758#1 -770761758#0 -1069919423#1 -1069919423#0 -1046997837#4 -1046997837#3 -1046997837#1 -1046997837#0 -1069919424 106609720#0 106609720#1 106609720#2 106609720#3 106609720#4"/>
    <flow id="flow_jeepney_34" route="route_34" begin="0" end="3600" period="257.14" type="jeepney" departLane="random" departSpeed="random" departPos="random" arrivalLane="current" departPosLat="random"/>
    <route id="route_35" edges="-794461797#2 -794461797#1 -794461797#0 -794461796#1 -794461796#0 24224171#0 24224171#2 794461795 1069919419 106768822"/>
    <flow id="flow_jeepney_35" route="route_35" begin="0" end="3600" period="100.00" type="jeepney" departLane="random" departSpeed="random" departPos="random" arrivalLane="current" departPosLat="random"/>
    <route id="route_36" edges="-794461797#2 -794461797#1 -794461797#0 -794461796#1 -794461796#0 -1069919420 -455558436#1 1102489115#0 24224169#1 24224169#2 24224169#3 24224169#4 24224169#5 24224169#6 24224169#8 24224169#10 24224169#11 1102489120"/>
    <flow id="flow_jeepney_36" route="route_36" begin="0" end="3600" period="100.00" type="jeepney" departLane="random" departSpeed="random" departPos="random" arrivalLane="current" departPosLat="random"/>
    <route id="route_37" edges="-794461797#2 -794461797#1 -794461797#0 -794461796#1 -794461796#0 -1069919420 -455558436#1 1102489115#0 24224169#1 24224169#2 24224169#3 24224169#4 24224169#5 24224169#6 24224169#8 24224169#10 24224169#11 1102489118 1042538759#1 1042538759#2 934492019#0 934492019#1 934492019#2 934492019#3 934492019#4 934492019#5 934492019#6"/>
    <flow id="flow_jeepney_37" route="route_37" begin="0" end="3600" period="300.00" type="jeepney" departLane="random" departSpeed="random" departPos="random" arrivalLane="current" departPosLat="random"/>
    <route id="route_38" edges="770761758#1 770761758#2 1069919422#0 1102489115#0"/>
    <flow id="flow_jeepney_38" route="route_38" begin="0" end="3600" period="150.00" type="jeepney" departLane="random" departSpeed="random" departPos="random" arrivalLane="current" departPosLat="random"/>
    <route id="route_39" edges="770761758#1 770761758#2 1069919422#0 934134356#0 1069919421 794461795 1069919419 106768822"/>
    <flow id="flow_jeepney_39" route="route_39" begin="0" end="3600" period="150.00" type="jeepney" departLane="random" departSpeed="random" departPos="random" arrivalLane="current" departPosLat="random"/>
    <route id="route_40" edges="-1069919421 -934134356#1 1102489115#0"/>
    <flow id="flow_jeepney_40" route="route_40" begin="0" end="3600" period="150.00" type="jeepney" departLane="random" departSpeed="random" departPos="random" arrivalLane="current" departPosLat="random"/>
    <route id="route_41" edges="-24224169#2 -24224169#1 -24224169#0 934134356#0 1069919421 794461795 1069919419 106768822"/>
    <flow id="flow_jeepney_41" route="route_41" begin="0" end="3600" period="200.00" type="jeepney" departLane="random" departSpeed="random" departPos="random" arrivalLane="current" departPosLat="random"/>
    <route id="route_42" edges="-24224169#2 -24224169#1 -24224169#0 -1069919422#1 -770761758#2 -770761758#1 -770761758#0 -1069919423#1 -1069919423#0 -1046997837#4 -1046997837#3 -1046997837#1 -1046997837#0 -1069919424 -935563495#7 -935563495#4 -935563495#3 -935563495#2"/>
    <flow id="flow_jeepney_42" route="route_42" begin="0" end="3600" period="600.00" type="jeepney" departLane="random" departSpeed="random" departPos="random" arrivalLane="current" departPosLat="random"/>
    <route id="route_43" edges="-24224169#2 -24224169#1 -24224169#0 -1069919422#1 -770761758#2 -770761758#1 -770761758#0 -1069919423#1 -1069919423#0 -1046997837#4 -1046997837#3 -1046997837#1 -1046997837#0 -1069919424 -1069919425#1 -1069919425#0 -1046997838#3 -1046997838#2 -1046997838#1 -1046997838#0 -1046997839#7 -1046997839#6"/>
    <flow id="flow_jeepney_43" route="route_43" begin="0" end="3600" period="600.00" type="jeepney" departLane="random" departSpeed="random" departPos="random" arrivalLane="current" departPosLat="random"/>
    <route id="route_44" edges="-24224169#2 -24224169#1 -24224169#0 -1069919422#1 -770761758#2 -770761758#1 -770761758#0 -1069919423#1 -1069919423#0 -1046997837#4 -1046997837#3 -1046997837#1 -1046997837#0 -1069919424 106609720#0 106609720#1 106609720#2 106609720#3 106609720#4"/>
    <flow id="flow_jeepney_44" route="route_44" begin="0" end="3600" period="600.00" type="jeepney" departLane="random" departSpeed="random" departPos="random" arrivalLane="current" departPosLat="random"/>
    <route id="route_45" edges="106768821 -1069919419 -794461795 -1069919421 -934134356#1 1102489115#0 24224169#1 24224169#2 24224169#3 24224169#4 24224169#5 24224169#6 24224169#8 24224169#10 24224169#11 1102489120"/>
    <flow id="flow_bus_45" route="route_45" begin="0" end="3600" period="857.14" type="bus" departLane="random" departSpeed="random" departPos="random" arrivalLane="current" departPosLat="random"/>
    <route id="route_46" edges="106768821 -1069919419 -794461795 -1069919421 -934134356#1 1102489115#0 24224169#1 24224169#2 24224169#3 24224169#4 24224169#5 24224169#6 24224169#8 24224169#10 24224169#11 1102489118 1042538759#1 1042538759#2 934492019#0 934492019#1 934492019#2 934492019#3 934492019#4 934492019#5 934492019#6"/>
    <flow id="flow_bus_46" route="route_46" begin="0" end="3600" period="2571.43" type="bus" departLane="random" departSpeed="random" departPos="random" arrivalLane="current" departPosLat="random"/>
    <route id="route_47" edges="106768821 -1069919419 -794461795 -1069919421 -934134356#1 -1069919422#1 -770761758#2 -770761758#1 -770761758#0 -1069919423#1 -1069919423#0 -1046997837#4 -1046997837#3 -1046997837#1 -1046997837#0 -1069919424 -935563495#7 -935563495#4 -935563495#3 -935563495#2"/>
    <flow id="flow_bus_47" route="route_47" begin="0" end="3600" period="2571.43" type="bus" departLane="random" departSpeed="random" departPos="random" arrivalLane="current" departPosLat="random"/>
    <route id="route_48" edges="106768821 -1069919419 -794461795 -1069919421 -934134356#1 -1069919422#1 -770761758#2 -770761758#1 -770761758#0 -1069919423#1 -1069919423#0 -1046997837#4 -1046997837#3 -1046997837#1 -1046997837#0 -1069919424 -1069919425#1 -1069919425#0 -1046997838#3 -1046997838#2 -1046997838#1 -1046997838#0 -1046997839#7 -1046997839#6"/>
    <flow id="flow_bus_48" route="route_48" begin="0" end="3600" period="2571.43" type="bus" departLane="random" departSpeed="random" departPos="random" arrivalLane="current" departPosLat="random"/>
    <route id="route_49" edges="106768821 -1069919419 -794461795 -1069919421 -934134356#1 -1069919422#1 -770761758#2 -770761758#1 -770761758#0 -1069919423#1 -1069919423#0 -1046997837#4 -1046997837#3 -1046997837#1 -1046997837#0 -1069919424 106609720#0 106609720#1 106609720#2 106609720#3 106609720#4"/>
    <flow id="flow_bus_49" route="route_49" begin="0" end="3600" period="2571.43" type="bus" departLane="random" departSpeed="random" departPos="random" arrivalLane="current" departPosLat="random"/>
    <route id="route_50" edges="-794461797#2 -794461797#1 -794461797#0 -794461796#1 -794461796#0 24224171#0 24224171#2 794461795 1069919419 106768822"/>
    <flow id="flow_bus_50" route="route_50" begin="0" end="3600" period="1000.00" type="bus" departLane="random" departSpeed="random" departPos="random" arrivalLane="current" departPosLat="random"/>
    <route id="route_51" edges="-794461797#2 -794461797#1 -794461797#0 -794461796#1 -794461796#0 -1069919420 -455558436#1 1102489115#0 24224169#1 24224169#2 24224169#3 24224169#4 24224169#5 24224169#6 24224169#8 24224169#10 24224169#11 1102489120"/>
    <flow id="flow_bus_51" route="route_51" begin="0" end="3600" period="1000.00" type="bus" departLane="random" departSpeed="random" departPos="random" arrivalLane="current" departPosLat="random"/>
    <route id="route_52" edges="-794461797#2 -794461797#1 -794461797#0 -794461796#1 -794461796#0 -1069919420 -455558436#1 1102489115#0 24224169#1 24224169#2 24224169#3 24224169#4 24224169#5 24224169#6 24224169#8 24224169#10 24224169#11 1102489118 1042538759#1 1042538759#2 934492019#0 934492019#1 934492019#2 934492019#3 934492019#4 934492019#5 934492019#6"/>
    <flow id="flow_bus_52" route="route_52" begin="0" end="3600" period="3000.00" type="bus" departLane="random" departSpeed="random" departPos="random" arrivalLane="current" departPosLat="random"/>
    <route id="route_53" edges="770761758#1 770761758#2 1069919422#0 1102489115#0"/>
    <flow id="flow_bus_53" route="route_53" begin="0" end="3600" period="1500.00" type="bus" departLane="random" departSpeed="random" departPos="random" arrivalLane="current" departPosLat="random"/>
    <route id="route_54" edges="770761758#1 770761758#2 1069919422#0 934134356#0 1069919421 794461795 1069919419 106768822"/>
    <flow id="flow_bus_54" route="route_54" begin="0" end="3600" period="1500.00" type="bus" departLane="random" departSpeed="random" departPos="random" arrivalLane="current" departPosLat="random"/>
    <route id="route_55" edges="-1069919421 -934134356#1 1102489115#0"/>
    <flow id="flow_bus_55" route="route_55" begin="0" end="3600" period="1500.00" type="bus" departLane="random" departSpeed="random" departPos="random" arrivalLane="current" departPosLat="random"/>
    <route id="route_56" edges="-24224169#2 -24224169#1 -24224169#0 934134356#0 1069919421 794461795 1069919419 106768822"/>
    <flow id="flow_bus_56" route="route_56" begin="0" end="3600" period="2000.00" type="bus" departLane="random" departSpeed="random" departPos="random" arrivalLane="current" departPosLat="random"/>
    <route id="route_57" edges="-24224169#2 -24224169#1 -24224169#0 -1069919422#1 -770761758#2 -770761758#1 -770761758#0 -1069919423#1 -1069919423#0 -1046997837#4 -1046997837#3 -1046997837#1 -1046997837#0 -1069919424 -935563495#7 -935563495#4 -935563495#3 -935563495#2"/>
    <flow id="flow_bus_57" route="route_57" begin="0" end="3600" period="6000.00" type="bus" departLane="random" departSpeed="random" departPos="random" arrivalLane="current" departPosLat="random"/>
    <route id="route_58" edges="-24224169#2 -24224169#1 -24224169#0 -1069919422#1 -770761758#2 -770761758#1 -770761758#0 -1069919423#1 -1069919423#0 -1046997837#4 -1046997837#3 -1046997837#1 -1046997837#0 -1069919424 -1069919425#1 -1069919425#0 -1046997838#3 -1046997838#2 -1046997838#1 -1046997838#0 -1046997839#7 -1046997839#6"/>
    <flow id="flow_bus_58" route="route_58" begin="0" end="3600" period="6000.00" type="bus" departLane="random" departSpeed="random" departPos="random" arrivalLane="current" departPosLat="random"/>
    <route id="route_59" edges="-24224169#2 -24224169#1 -24224169#0 -1069919422#1 -770761758#2 -770761758#1 -770761758#0 -1069919423#1 -1069919423#0 -1046997837#4 -1046997837#3 -1046997837#1 -1046997837#0 -1069919424 106609720#0 106609720#1 106609720#2 106609720#3 106609720#4"/>
    <flow id="flow_bus_59" route="route_59" begin="0" end="3600" period="6000.00" type="bus" departLane="random" departSpeed="random" departPos="random" arrivalLane="current" departPosLat="random"/>
    <route id="route_60" edges="106768821 -1069919419 -794461795 -1069919421 -934134356#1 1102489115#0 24224169#1 24224169#2 24224169#3 24224169#4 24224169#5 24224169#6 24224169#8 24224169#10 24224169#11 1102489120"/>
    <flow id="flow_truck_60" route="route_60" begin="0" end="3600" period="428.57" type="truck" departLane="random" departSpeed="random" departPos="random" arrivalLane="current" departPosLat="random"/>
    <route id="route_61" edges="106768821 -1069919419 -794461795 -1069919421 -934134356#1 1102489115#0 24224169#1 24224169#2 24224169#3 24224169#4 24224169#5 24224169#6 24224169#8 24224169#10 24224169#11 1102489118 1042538759#1 1042538759#2 934492019#0 934492019#1 934492019#2 934492019#3 934492019#4 934492019#5 934492019#6"/>
    <flow id="flow_truck_61" route="route_61" begin="0" end="3600" period="1285.71" type="truck" departLane="random" departSpeed="random" departPos="random" arrivalLane="current" departPosLat="random"/>
    <route id="route_62" edges="106768821 -1069919419 -794461795 -1069919421 -934134356#1 -1069919422#1 -770761758#2 -770761758#1 -770761758#0 -1069919423#1 -1069919423#0 -1046997837#4 -1046997837#3 -1046997837#1 -1046997837#0 -1069919424 -935563495#7 -935563495#4 -935563495#3 -935563495#2"/>
    <flow id="flow_truck_62" route="route_62" begin="0" end="3600" period="1285.71" type="truck" departLane="random" departSpeed="random" departPos="random" arrivalLane="current" departPosLat="random"/>
    <route id="route_63" edges="106768821 -1069919419 -794461795 -1069919421 -934134356#1 -1069919422#1 -770761758#2 -770761758#1 -770761758#0 -1069919423#1 -1069919423#0 -1046997837#4 -1046997837#3 -1046997837#1 -1046997837#0 -1069919424 -1069919425#1 -1069919425#0 -1046997838#3 -1046997838#2 -1046997838#1 -1046997838#0 -1046997839#7 -1046997839#6"/>
    <flow id="flow_truck_63" route="route_63" begin="0" end="3600" period="1285.71" type="truck" departLane="random" departSpeed="random" departPos="random" arrivalLane="current" departPosLat="random"/>
    <route id="route_64" edges="106768821 -1069919419 -794461795 -1069919421 -934134356#1 -1069919422#1 -770761758#2 -770761758#1 -770761758#0 -1069919423#1 -1069919423#0 -1046997837#4 -1046997837#3 -1046997837#1 -1046997837#0 -1069919424 106609720#0 106609720#1 106609720#2 106609720#3 106609720#4"/>
    <flow id="flow_truck_64" route="route_64" begin="0" end="3600" period="1285.71" type="truck" departLane="random" departSpeed="random" departPos="random" arrivalLane="current" departPosLat="random"/>
    <route id="route_65" edges="-794461797#2 -794461797#1 -794461797#0 -794461796#1 -794461796#0 24224171#0 24224171#2 794461795 1069919419 106768822"/>
    <flow id="flow_truck_65" route="route_65" begin="0" end="3600" period="500.00" type="truck" departLane="random" departSpeed="random" departPos="random" arrivalLane="current" departPosLat="random"/>