<?xml version="1.0" ?>
<routes xmlns:xsi="http://www.w3.org/2001/XMLSchema-instance" xsi:noNamespaceSchemaLocation="http://sumo.dlr.de/xsd/routes_file.xsd">
    <vType id="car" accel="2.6" decel="4.5" sigma="0.5" length="5" minGap="2.5" maxSpeed="11.11" guiShape="passenger"/>
    <vType id="bus" accel="1.2" decel="4.0" sigma="0.5" length="12" minGap="3.0" maxSpeed="11.11" guiShape="bus"/>
    <vType id="jeepney" accel="1.8" decel="4.2" sigma="0.5" length="8" minGap="2.8" maxSpeed="11.11" guiShape="bus"/>
    <vType id="motor" accel="3.0" decel="5.0" sigma="0.3" length="2" minGap="1.5" maxSpeed="11.11" guiShape="motorcycle"/>
    <vType id="truck" accel="1.5" decel="3.5" sigma="0.4" length="10" minGap="3.5" maxSpeed="11.11" guiShape="truck"/>
    <route id="route_0" edges="-1102489116"/>
    <flow id="flow_car_0" route="route_0" begin="0" end="3600" period="22.50" type="car" departLane="random" departSpeed="random" departPos="random" arrivalLane="current" departPosLat="random"/>
    <route id="route_1" edges="-1102489116"/>
    <flow id="flow_car_1" route="route_1" begin="0" end="3600" period="22.50" type="car" departLane="random" departSpeed="random" departPos="random" arrivalLane="current" departPosLat="random"/>
    <route id="route_2" edges="1042538762#0 1042538762#1 1042538762#2 1042538762#3 1102489118 1042538759#1 1042538759#2 934492019#0 934492019#1 934492019#2 934492019#3 934492019#4 934492019#5 934492019#6 934492019#7 934492019#8"/>
    <flow id="flow_car_2" route="route_2" begin="0" end="3600" period="11.25" type="car" departLane="random" departSpeed="random" departPos="random" arrivalLane="current" departPosLat="random"/>
    <route id="route_3" edges="1042538762#0 1042538762#1 1042538762#2 1042538762#3 -1102489116"/>
    <flow id="flow_car_3" route="route_3" begin="0" end="3600" period="33.75" type="car" departLane="random" departSpeed="random" departPos="random" arrivalLane="current" departPosLat="random"/>
    <route id="route_4" edges="934492020#7 934492020#9 1042538760#0 1042538760#1 1042538760#2 -1102489116"/>
    <flow id="flow_car_4" route="route_4" begin="0" end="3600" period="38.57" type="car" departLane="random" departSpeed="random" departPos="random" arrivalLane="current" departPosLat="random"/>
    <route id="route_5" edges="24224169#8 24224169#10 24224169#11 1102489118 1042538759#1 1042538759#2 934492019#0 934492019#1 934492019#2 934492019#3 934492019#4 934492019#5 934492019#6 934492019#7 934492019#8"/>
    <flow id="flow_car_5" route="route_5" begin="0" end="3600" period="18.00" type="car" departLane="random" departSpeed="random" departPos="random" arrivalLane="current" departPosLat="random"/>
    <route id="route_6" edges="-1102489116"/>
    <flow id="flow_motor_6" route="route_6" begin="0" end="3600" period="26.63" type="motor" departLane="random" departSpeed="random" departPos="random" arrivalLane="current" departPosLat="random"/>
    <route id="route_7" edges="-1102489116"/>
    <flow id="flow_motor_7" route="route_7" begin="0" end="3600" period="26.63" type="motor" departLane="random" departSpeed="random" departPos="random" arrivalLane="current" departPosLat="random"/>
    <route id="route_8" edges="1042538762#0 1042538762#1 1042538762#2 1042538762#3 1102489118 1042538759#1 1042538759#2 934492019#0 934492019#1 934492019#2 934492019#3 934492019#4 934492019#5 934492019#6 934492019#7 934492019#8"/>
    <flow id="flow_motor_8" route="route_8" begin="0" end="3600" period="13.31" type="motor" departLane="random" departSpeed="random" departPos="random" arrivalLane="current" departPosLat="random"/>
    <route id="route_9" edges="1042538762#0 1042538762#1 1042538762#2 1042538762#3 -1102489116"/>
    <flow id="flow_motor_9" route="route_9" begin="0" end="3600" period="39.94" type="motor" departLane="random" departSpeed="random" departPos="random" arrivalLane="current" departPosLat="random"/>
    <route id="route_10" edges="934492020#7 934492020#9 1042538760#0 1042538760#1 1042538760#2 -1102489116"/>
    <flow id="flow_motor_10" route="route_10" begin="0" end="3600" period="45.65" type="motor" departLane="random" departSpeed="random" departPos="random" arrivalLane="current" departPosLat="random"/>
    <route id="route_11" edges="24224169#8 24224169#10 24224169#11 1102489118 1042538759#1 1042538759#2 934492019#0 934492019#1 934492019#2 934492019#3 934492019#4 934492019#5 934492019#6 934492019#7 934492019#8"/>
    <flow id="flow_motor_11" route="route_11" begin="0" end="3600" period="21.30" type="motor" departLane="random" departSpeed="random" departPos="random" arrivalLane="current" departPosLat="random"/>
    <route id="route_12" edges="-1102489116"/>
    <flow id="flow_jeepney_12" route="route_12" begin="0" end="3600" period="77.59" type="jeepney" departLane="random" departSpeed="random" departPos="random" arrivalLane="current" departPosLat="random"/>
    <route id="route_13" edges="-1102489116"/>
    <flow id="flow_jeepney_13" route="route_13" begin="0" end="3600" period="77.59" type="jeepney" departLane="random" departSpeed="random" departPos="random" arrivalLane="current" departPosLat="random"/>
    <route id="route_14" edges="1042538762#0 1042538762#1 1042538762#2 1042538762#3 1102489118 1042538759#1 1042538759#2 934492019#0 934492019#1 934492019#2 934492019#3 934492019#4 934492019#5 934492019#6 934492019#7 934492019#8"/>
    <flow id="flow_jeepney_14" route="route_14" begin="0" end="3600" period="38.79" type="jeepney" departLane="random" departSpeed="random" departPos="random" arrivalLane="current" departPosLat="random"/>
    <route id="route_15" edges="1042538762#0 1042538762#1 1042538762#2 1042538762#3 -1102489116"/>
    <flow id="flow_jeepney_15" route="route_15" begin="0" end="3600" period="116.38" type="jeepney" departLane="random" departSpeed="random" departPos="random" arrivalLane="current" departPosLat="random"/>
    <route id="route_16" edges="934492020#7 934492020#9 1042538760#0 1042538760#1 1042538760#2 -1102489116"/>
    <flow id="flow_jeepney_16" route="route_16" begin="0" end="3600" period="133.00" type="jeepney" departLane="random" departSpeed="random" departPos="random" arrivalLane="current" departPosLat="random"/>
    <route id="route_17" edges="24224169#8 24224169#10 24224169#11 1102489118 1042538759#1 1042538759#2 934492019#0 934492019#1 934492019#2 934492019#3 934492019#4 934492019#5 934492019#6 934492019#7 934492019#8"/>
    <flow id="flow_jeepney_17" route="route_17" begin="0" end="3600" period="62.07" type="jeepney" departLane="random" departSpeed="random" departPos="random" arrivalLane="current" departPosLat="random"/>
    <route id="route_18" edges="-1102489116"/>
    <flow id="flow_bus_18" route="route_18" begin="0" end="3600" period="1125.00" type="bus" departLane="random" departSpeed="random" departPos="random" arrivalLane="current" departPosLat="random"/>
    <route id="route_19" edges="-1102489116"/>
    <flow id="flow_bus_19" route="route_19" begin="0" end="3600" period="1125.00" type="bus" departLane="random" departSpeed="random" departPos="random" arrivalLane="current" departPosLat="random"/>
    <route id="route_20" edges="1042538762#0 1042538762#1 1042538762#2 1042538762#3 1102489118 1042538759#1 1042538759#2 934492019#0 934492019#1 934492019#2 934492019#3 934492019#4 934492019#5 934492019#6 934492019#7 934492019#8"/>
    <flow id="flow_bus_20" route="route_20" begin="0" end="3600" period="562.50" type="bus" departLane="random" departSpeed="random" departPos="random" arrivalLane="current" departPosLat="random"/>
    <route id="route_21" edges="1042538762#0 1042538762#1 1042538762#2 1042538762#3 -1102489116"/>
    <flow id="flow_bus_21" route="route_21" begin="0" end="3600" period="1687.50" type="bus" departLane="random" departSpeed="random" departPos="random" arrivalLane="current" departPosLat="random"/>
    <route id="route_22" edges="934492020#7 934492020#9 1042538760#0 1042538760#1 1042538760#2 -1102489116"/>
    <flow id="flow_bus_22" route="route_22" begin="0" end="3600" period="1928.57" type="bus" departLane="random" departSpeed="random" departPos="random" arrivalLane="current" departPosLat="random"/>
    <route id="route_23" edges="24224169#8 24224169#10 24224169#11 1102489118 1042538759#1 1042538759#2 934492019#0 934492019#1 934492019#2 934492019#3 934492019#4 934492019#5 934492019#6 934492019#7 934492019#8"/>
    <flow id="flow_bus_23" route="route_23" begin="0" end="3600" period="900.00" type="bus" departLane="random" departSpeed="random" departPos="random" arrivalLane="current" departPosLat="random"/>
    <route id="route_24" edges="-1102489116"/>
    <flow id="flow_truck_24" route="route_24" begin="0" end="3600" period="409.09" type="truck" departLane="random" departSpeed="random" departPos="random" arrivalLane="current" departPosLat="random"/>
    <route id="route_25" edges="-1102489116"/>
    <flow id="flow_truck_25" route="route_25" begin="0" end="3600" period="409.09" type="truck" departLane="random" departSpeed="random" departPos="random" arrivalLane="current" departPosLat="random"/>
    <route id="route_26" edges="1042538762#0 1042538762#1 1042538762#2 1042538762#3 1102489118 1042538759#1 1042538759#2 934492019#0 934492019#1 934492019#2 934492019#3 934492019#4 934492019#5 934492019#6 934492019#7 934492019#8"/>
    <flow id="flow_truck_26" route="route_26" begin="0" end="3600" period="204.55" type="truck" departLane="random" departSpeed="random" departPos="random" arrivalLane="current" departPosLat="random"/>
    <route id="route_27" edges="1042538762#0 1042538762#1 1042538762#2 1042538762#3 -1102489116"/>
    <flow id="flow_truck_27" route="route_27" begin="0" end="3600" period="613.64" type="truck" departLane="random" departSpeed="random" departPos="random" arrivalLane="current" departPosLat="random"/>
    <route id="route_28" edges="934492020#7 934492020#9 1042538760#0 1042538760#1 1042538760#2 -1102489116"/>
    <flow id="flow_truck_28" route="route_28" begin="0" end="3600" period="701.30" type="truck" departLane="random" departSpeed="random" departPos="random" arrivalLane="current" departPosLat="random"/>
    <route id="route_29" edges="24224169#8 24224169#10 24224169#11 1102489118 1042538759#1 1042538759#2 934492019#0 934492019#1 934492019#2 934492019#3 934492019#4 934492019#5 934492019#6 934492019#7 934492019#8"/>
    <flow id="flow_truck_29" route="route_29" begin="0" end="3600" period="327.27" type="truck" departLane="random" departSpeed="random" departPos="random" arrivalLane="current" departPosLat="random"/>
</routes>